<additional>
    <edgeData id="0" file="" period="" excludeEmpty="true"/>
</additional>