<?xml version='1.0' encoding='utf-8'?>
<additional>
	<edgeData id="0" file="/home/svadlmat/UTC/utc/data/scenarios/itsc_25200_32400/statistics/stats_full_edgedata.out.xml" period="900" excludeEmpty="true" />
</additional>