<?xml version='1.0' encoding='utf-8'?>
<additional>
	<vType id="CarDefault" accel="3.0" decel="6.0" length="5.0" minGap="2.5" maxSpeed="50.0" sigma="0.5" />
	<vehicle id="carIn54:1" type="CarDefault" depart="25201.00" departPos="random" departSpeed="0.00" arrivalPos="random" arrivalSpeed="0.00" route="r0" />
	<vehicle id="h25314c1:1" type="CarDefault" depart="25201.00" departPos="random" departSpeed="0.00" arrivalPos="random" arrivalSpeed="0.00" route="r1" />
	<vehicle id="carIn35261:1" type="CarDefault" depart="25202.00" departPos="random" departSpeed="0.00" arrivalPos="random" arrivalSpeed="0.00" route="r2" />
	<vehicle id="h50486c1:1" type="CarDefault" depart="25204.00" departPos="random" departSpeed="0.00" arrivalPos="random" arrivalSpeed="0.00" route="r3" />
	<vehicle id="carIn33398:1" type="CarDefault" depart="25206.00" departPos="random" departSpeed="0.00" arrivalPos="random" arrivalSpeed="0.00" route="r4" />
	<vehicle id="carIn16731:1" type="CarDefault" depart="25207.00" departPos="random" departSpeed="0.00" arrivalPos="random" arrivalSpeed="0.00" route="r5" />
	<vehicle id="carIn7433:1" type="CarDefault" depart="25208.00" departPos="random" departSpeed="0.00" arrivalPos="random" arrivalSpeed="0.00" route="r6" />
	<vehicle id="carIn33319:1" type="CarDefault" depart="25209.00" departPos="random" departSpeed="0.00" arrivalPos="random" arrivalSpeed="0.00" route="r7" />
	<vehicle id="carIn46304:1" type="CarDefault" depart="25209.00" departPos="random" departSpeed="0.00" arrivalPos="random" arrivalSpeed="0.00" route="r8" />
	<vehicle id="h32267c1:1" type="CarDefault" depart="25209.00" departPos="random" departSpeed="0.00" arrivalPos="random" arrivalSpeed="0.00" route="r9" />
	<vehicle id="h73898c1:1" type="CarDefault" depart="25209.00" departPos="random" departSpeed="0.00" arrivalPos="random" arrivalSpeed="0.00" route="r10" />
	<vehicle id="carIn3702:1" type="CarDefault" depart="25210.00" departPos="random" departSpeed="0.00" arrivalPos="random" arrivalSpeed="0.00" route="r11" />
	<vehicle id="h49766c1:1" type="CarDefault" depart="25210.00" departPos="random" departSpeed="0.00" arrivalPos="random" arrivalSpeed="0.00" route="r12" />
	<vehicle id="carIn20867:1" type="CarDefault" depart="25211.00" departPos="random" departSpeed="0.00" arrivalPos="random" arrivalSpeed="0.00" route="r13" />
	<vehicle id="carIn38934:1" type="CarDefault" depart="25211.00" departPos="random" departSpeed="0.00" arrivalPos="random" arrivalSpeed="0.00" route="r14" />
	<vehicle id="h1972c1:1" type="CarDefault" depart="25213.00" departPos="random" departSpeed="0.00" arrivalPos="random" arrivalSpeed="0.00" route="r15" />
	<vehicle id="h20142c1:1" type="CarDefault" depart="25213.00" departPos="random" departSpeed="0.00" arrivalPos="random" arrivalSpeed="0.00" route="r16" />
	<vehicle id="h34301c1:1" type="CarDefault" depart="25216.00" departPos="random" departSpeed="0.00" arrivalPos="random" arrivalSpeed="0.00" route="r17" />
	<vehicle id="h13548c2:1" type="CarDefault" depart="25218.00" departPos="random" departSpeed="0.00" arrivalPos="random" arrivalSpeed="0.00" route="r18" />
	<vehicle id="h42277c2:1" type="CarDefault" depart="25219.00" departPos="random" departSpeed="0.00" arrivalPos="random" arrivalSpeed="0.00" route="r19" />
	<vehicle id="carIn5718:1" type="CarDefault" depart="25220.00" departPos="random" departSpeed="0.00" arrivalPos="random" arrivalSpeed="0.00" route="r20" />
	<vehicle id="carIn21829:1" type="CarDefault" depart="25221.00" departPos="random" departSpeed="0.00" arrivalPos="random" arrivalSpeed="0.00" route="r21" />
	<vehicle id="carIn18076:1" type="CarDefault" depart="25225.00" departPos="random" departSpeed="0.00" arrivalPos="random" arrivalSpeed="0.00" route="r22" />
	<vehicle id="carIn29659:1" type="CarDefault" depart="25226.00" departPos="random" departSpeed="0.00" arrivalPos="random" arrivalSpeed="0.00" route="r23" />
	<vehicle id="carIn15062:1" type="CarDefault" depart="25229.00" departPos="random" departSpeed="0.00" arrivalPos="random" arrivalSpeed="0.00" route="r24" />
	<vehicle id="carIn39200:1" type="CarDefault" depart="25229.00" departPos="random" departSpeed="0.00" arrivalPos="random" arrivalSpeed="0.00" route="r25" />
	<vehicle id="carIn19361:1" type="CarDefault" depart="25230.00" departPos="random" departSpeed="0.00" arrivalPos="random" arrivalSpeed="0.00" route="r26" />
	<vehicle id="carIn43905:1" type="CarDefault" depart="25231.00" departPos="random" departSpeed="0.00" arrivalPos="random" arrivalSpeed="0.00" route="r27" />
	<vehicle id="carIn45407:1" type="CarDefault" depart="25231.00" departPos="random" departSpeed="0.00" arrivalPos="random" arrivalSpeed="0.00" route="r28" />
	<vehicle id="h41611c1:1" type="CarDefault" depart="25237.00" departPos="random" departSpeed="0.00" arrivalPos="random" arrivalSpeed="0.00" route="r29" />
	<vehicle id="carIn17397:1" type="CarDefault" depart="25240.00" departPos="random" departSpeed="0.00" arrivalPos="random" arrivalSpeed="0.00" route="r30" />
	<vehicle id="carIn4497:1" type="CarDefault" depart="25240.00" departPos="random" departSpeed="0.00" arrivalPos="random" arrivalSpeed="0.00" route="r31" />
	<vehicle id="h34690c1:1" type="CarDefault" depart="25240.00" departPos="random" departSpeed="0.00" arrivalPos="random" arrivalSpeed="0.00" route="r32" />
	<vehicle id="h48222c1:1" type="CarDefault" depart="25240.00" departPos="random" departSpeed="0.00" arrivalPos="random" arrivalSpeed="0.00" route="r33" />
	<vehicle id="h11757c1:1" type="CarDefault" depart="25242.00" departPos="random" departSpeed="0.00" arrivalPos="random" arrivalSpeed="0.00" route="r34" />
	<vehicle id="carIn41443:1" type="CarDefault" depart="25244.00" departPos="random" departSpeed="0.00" arrivalPos="random" arrivalSpeed="0.00" route="r35" />
	<vehicle id="h25931c1:1" type="CarDefault" depart="25244.00" departPos="random" departSpeed="0.00" arrivalPos="random" arrivalSpeed="0.00" route="r36" />
	<vehicle id="randUni20886:1" type="CarDefault" depart="25244.00" departPos="random" departSpeed="0.00" arrivalPos="random" arrivalSpeed="0.00" route="r37" />
	<vehicle id="carIn20965:1" type="CarDefault" depart="25245.00" departPos="random" departSpeed="0.00" arrivalPos="random" arrivalSpeed="0.00" route="r38" />
	<vehicle id="h10980c1:1" type="CarDefault" depart="25245.00" departPos="random" departSpeed="0.00" arrivalPos="random" arrivalSpeed="0.00" route="r39" />
	<vehicle id="h31026c2:1" type="CarDefault" depart="25246.00" departPos="random" departSpeed="0.00" arrivalPos="random" arrivalSpeed="0.00" route="r40" />
	<vehicle id="h61284c1:1" type="CarDefault" depart="25247.00" departPos="random" departSpeed="0.00" arrivalPos="random" arrivalSpeed="0.00" route="r41" />
	<vehicle id="carIn38141:1" type="CarDefault" depart="25248.00" departPos="random" departSpeed="0.00" arrivalPos="random" arrivalSpeed="0.00" route="r42" />
	<vehicle id="h21136c1:1" type="CarDefault" depart="25248.00" departPos="random" departSpeed="0.00" arrivalPos="random" arrivalSpeed="0.00" route="r43" />
	<vehicle id="h72495c2:1" type="CarDefault" depart="25248.00" departPos="random" departSpeed="0.00" arrivalPos="random" arrivalSpeed="0.00" route="r44" />
	<vehicle id="carIn10221:1" type="CarDefault" depart="25250.00" departPos="random" departSpeed="0.00" arrivalPos="random" arrivalSpeed="0.00" route="r45" />
	<vehicle id="h3975c1:1" type="CarDefault" depart="25251.00" departPos="random" departSpeed="0.00" arrivalPos="random" arrivalSpeed="0.00" route="r46" />
	<vehicle id="h52655c1:1" type="CarDefault" depart="25251.00" departPos="random" departSpeed="0.00" arrivalPos="random" arrivalSpeed="0.00" route="r47" />
	<vehicle id="carIn4270:1" type="CarDefault" depart="25252.00" departPos="random" departSpeed="0.00" arrivalPos="random" arrivalSpeed="0.00" route="r48" />
	<vehicle id="h31616c1:1" type="CarDefault" depart="25252.00" departPos="random" departSpeed="0.00" arrivalPos="random" arrivalSpeed="0.00" route="r49" />
	<vehicle id="carIn13731:1" type="CarDefault" depart="25255.00" departPos="random" departSpeed="0.00" arrivalPos="random" arrivalSpeed="0.00" route="r50" />
	<vehicle id="h16118c1:1" type="CarDefault" depart="25255.00" departPos="random" departSpeed="0.00" arrivalPos="random" arrivalSpeed="0.00" route="r51" />
	<vehicle id="h5876c2:1" type="CarDefault" depart="25255.00" departPos="random" departSpeed="0.00" arrivalPos="random" arrivalSpeed="0.00" route="r52" />
	<vehicle id="carIn14841:1" type="CarDefault" depart="25256.00" departPos="random" departSpeed="0.00" arrivalPos="random" arrivalSpeed="0.00" route="r11" />
	<vehicle id="h16040c1:1" type="CarDefault" depart="25256.00" departPos="random" departSpeed="0.00" arrivalPos="random" arrivalSpeed="0.00" route="r53" />
	<vehicle id="carIn15386:1" type="CarDefault" depart="25261.00" departPos="random" departSpeed="0.00" arrivalPos="random" arrivalSpeed="0.00" route="r54" />
	<vehicle id="carIn22718:1" type="CarDefault" depart="25261.00" departPos="random" departSpeed="0.00" arrivalPos="random" arrivalSpeed="0.00" route="r55" />
	<vehicle id="carIn28449:1" type="CarDefault" depart="25261.00" departPos="random" departSpeed="0.00" arrivalPos="random" arrivalSpeed="0.00" route="r56" />
	<vehicle id="carIn35153:1" type="CarDefault" depart="25261.00" departPos="random" departSpeed="0.00" arrivalPos="random" arrivalSpeed="0.00" route="r57" />
	<vehicle id="carIn40828:1" type="CarDefault" depart="25261.00" departPos="random" departSpeed="0.00" arrivalPos="random" arrivalSpeed="0.00" route="r58" />
	<vehicle id="carIn5217:1" type="CarDefault" depart="25263.00" departPos="random" departSpeed="0.00" arrivalPos="random" arrivalSpeed="0.00" route="r59" />
	<vehicle id="carIn40992:1" type="CarDefault" depart="25264.00" departPos="random" departSpeed="0.00" arrivalPos="random" arrivalSpeed="0.00" route="r60" />
	<vehicle id="h12837c1:1" type="CarDefault" depart="25265.00" departPos="random" departSpeed="0.00" arrivalPos="random" arrivalSpeed="0.00" route="r61" />
	<vehicle id="h74967c1:1" type="CarDefault" depart="25265.00" departPos="random" departSpeed="0.00" arrivalPos="random" arrivalSpeed="0.00" route="r62" />
	<vehicle id="carIn49442:1" type="CarDefault" depart="25266.00" departPos="random" departSpeed="0.00" arrivalPos="random" arrivalSpeed="0.00" route="r63" />
	<vehicle id="h46629c1:1" type="CarDefault" depart="25267.00" departPos="random" departSpeed="0.00" arrivalPos="random" arrivalSpeed="0.00" route="r64" />
	<vehicle id="h7234c1:1" type="CarDefault" depart="25267.00" departPos="random" departSpeed="0.00" arrivalPos="random" arrivalSpeed="0.00" route="r65" />
	<vehicle id="carIn48952:1" type="CarDefault" depart="25268.00" departPos="random" departSpeed="0.00" arrivalPos="random" arrivalSpeed="0.00" route="r66" />
	<vehicle id="carIn28903:1" type="CarDefault" depart="25270.00" departPos="random" departSpeed="0.00" arrivalPos="random" arrivalSpeed="0.00" route="r67" />
	<vehicle id="h71234c1:1" type="CarDefault" depart="25270.00" departPos="random" departSpeed="0.00" arrivalPos="random" arrivalSpeed="0.00" route="r68" />
	<vehicle id="h1051c1:1" type="CarDefault" depart="25272.00" departPos="random" departSpeed="0.00" arrivalPos="random" arrivalSpeed="0.00" route="r69" />
	<vehicle id="h31662c1:1" type="CarDefault" depart="25272.00" departPos="random" departSpeed="0.00" arrivalPos="random" arrivalSpeed="0.00" route="r70" />
	<vehicle id="h60161c2:1" type="CarDefault" depart="25272.00" departPos="random" departSpeed="0.00" arrivalPos="random" arrivalSpeed="0.00" route="r71" />
	<vehicle id="carIn31224:1" type="CarDefault" depart="25273.00" departPos="random" departSpeed="0.00" arrivalPos="random" arrivalSpeed="0.00" route="r72" />
	<vehicle id="h28518c1:1" type="CarDefault" depart="25273.00" departPos="random" departSpeed="0.00" arrivalPos="random" arrivalSpeed="0.00" route="r73" />
	<vehicle id="carIn17363:1" type="CarDefault" depart="25274.00" departPos="random" departSpeed="0.00" arrivalPos="random" arrivalSpeed="0.00" route="r74" />
	<vehicle id="carIn45980:1" type="CarDefault" depart="25274.00" departPos="random" departSpeed="0.00" arrivalPos="random" arrivalSpeed="0.00" route="r75" />
	<vehicle id="h5970c1:1" type="CarDefault" depart="25274.00" departPos="random" departSpeed="0.00" arrivalPos="random" arrivalSpeed="0.00" route="r76" />
	<vehicle id="h55145c1:1" type="CarDefault" depart="25275.00" departPos="random" departSpeed="0.00" arrivalPos="random" arrivalSpeed="0.00" route="r77" />
	<vehicle id="carIn10488:1" type="CarDefault" depart="25279.00" departPos="random" departSpeed="0.00" arrivalPos="random" arrivalSpeed="0.00" route="r78" />
	<vehicle id="h44400c1:1" type="CarDefault" depart="25279.00" departPos="random" departSpeed="0.00" arrivalPos="random" arrivalSpeed="0.00" route="r79" />
	<vehicle id="carIn10159:1" type="CarDefault" depart="25281.00" departPos="random" departSpeed="0.00" arrivalPos="random" arrivalSpeed="0.00" route="r80" />
	<vehicle id="h4873c1:1" type="CarDefault" depart="25282.00" departPos="random" departSpeed="0.00" arrivalPos="random" arrivalSpeed="0.00" route="r81" />
	<vehicle id="carIn14742:1" type="CarDefault" depart="25285.00" departPos="random" departSpeed="0.00" arrivalPos="random" arrivalSpeed="0.00" route="r82" />
	<vehicle id="h32354c2:1" type="CarDefault" depart="25287.00" departPos="random" departSpeed="0.00" arrivalPos="random" arrivalSpeed="0.00" route="r83" />
	<vehicle id="h3669c1:1" type="CarDefault" depart="25288.00" departPos="random" departSpeed="0.00" arrivalPos="random" arrivalSpeed="0.00" route="r84" />
	<vehicle id="carIn46560:1" type="CarDefault" depart="25291.00" departPos="random" departSpeed="0.00" arrivalPos="random" arrivalSpeed="0.00" route="r85" />
	<vehicle id="h47407c1:1" type="CarDefault" depart="25292.00" departPos="random" departSpeed="0.00" arrivalPos="random" arrivalSpeed="0.00" route="r86" />
	<vehicle id="carIn598:1" type="CarDefault" depart="25293.00" departPos="random" departSpeed="0.00" arrivalPos="random" arrivalSpeed="0.00" route="r87" />
	<vehicle id="h60053c1:1" type="CarDefault" depart="25295.00" departPos="random" departSpeed="0.00" arrivalPos="random" arrivalSpeed="0.00" route="r88" />
	<vehicle id="carIn24189:1" type="CarDefault" depart="25296.00" departPos="random" departSpeed="0.00" arrivalPos="random" arrivalSpeed="0.00" route="r89" />
	<vehicle id="h28025c1:1" type="CarDefault" depart="25296.00" departPos="random" departSpeed="0.00" arrivalPos="random" arrivalSpeed="0.00" route="r90" />
	<vehicle id="h51725c1:1" type="CarDefault" depart="25296.00" departPos="random" departSpeed="0.00" arrivalPos="random" arrivalSpeed="0.00" route="r91" />
	<vehicle id="h16111c1:1" type="CarDefault" depart="25297.00" departPos="random" departSpeed="0.00" arrivalPos="random" arrivalSpeed="0.00" route="r92" />
	<vehicle id="h34597c1:1" type="CarDefault" depart="25299.00" departPos="random" departSpeed="0.00" arrivalPos="random" arrivalSpeed="0.00" route="r93" />
	<vehicle id="h70496c1:1" type="CarDefault" depart="25299.00" departPos="random" departSpeed="0.00" arrivalPos="random" arrivalSpeed="0.00" route="r94" />
	<vehicle id="h20354c1:1" type="CarDefault" depart="25300.00" departPos="random" departSpeed="0.00" arrivalPos="random" arrivalSpeed="0.00" route="r95" />
	<vehicle id="h12273c1:1" type="CarDefault" depart="25301.00" departPos="random" departSpeed="0.00" arrivalPos="random" arrivalSpeed="0.00" route="r96" />
	<vehicle id="carIn28783:1" type="CarDefault" depart="25302.00" departPos="random" departSpeed="0.00" arrivalPos="random" arrivalSpeed="0.00" route="r97" />
	<vehicle id="h40337c1:1" type="CarDefault" depart="25302.00" departPos="random" departSpeed="0.00" arrivalPos="random" arrivalSpeed="0.00" route="r98" />
	<vehicle id="h41374c1:1" type="CarDefault" depart="25302.00" departPos="random" departSpeed="0.00" arrivalPos="random" arrivalSpeed="0.00" route="r99" />
	<vehicle id="carIn18631:1" type="CarDefault" depart="25303.00" departPos="random" departSpeed="0.00" arrivalPos="random" arrivalSpeed="0.00" route="r100" />
	<vehicle id="h10609c2:1" type="CarDefault" depart="25307.00" departPos="random" departSpeed="0.00" arrivalPos="random" arrivalSpeed="0.00" route="r101" />
	<vehicle id="h9012c1:1" type="CarDefault" depart="25307.00" departPos="random" departSpeed="0.00" arrivalPos="random" arrivalSpeed="0.00" route="r102" />
	<vehicle id="carIn15522:1" type="CarDefault" depart="25308.00" departPos="random" departSpeed="0.00" arrivalPos="random" arrivalSpeed="0.00" route="r103" />
	<vehicle id="carIn42312:1" type="CarDefault" depart="25308.00" departPos="random" departSpeed="0.00" arrivalPos="random" arrivalSpeed="0.00" route="r104" />
	<vehicle id="carIn26958:1" type="CarDefault" depart="25309.00" departPos="random" departSpeed="0.00" arrivalPos="random" arrivalSpeed="0.00" route="r105" />
	<vehicle id="carIn12116:1" type="CarDefault" depart="25311.00" departPos="random" departSpeed="0.00" arrivalPos="random" arrivalSpeed="0.00" route="r106" />
	<vehicle id="h55608c1:1" type="CarDefault" depart="25311.00" departPos="random" departSpeed="0.00" arrivalPos="random" arrivalSpeed="0.00" route="r107" />
	<vehicle id="h58323c2:1" type="CarDefault" depart="25312.00" departPos="random" departSpeed="0.00" arrivalPos="random" arrivalSpeed="0.00" route="r108" />
	<vehicle id="h56957c1:1" type="CarDefault" depart="25315.00" departPos="random" departSpeed="0.00" arrivalPos="random" arrivalSpeed="0.00" route="r109" />
	<vehicle id="carIn717:1" type="CarDefault" depart="25316.00" departPos="random" departSpeed="0.00" arrivalPos="random" arrivalSpeed="0.00" route="r110" />
	<vehicle id="h68233c1:1" type="CarDefault" depart="25316.00" departPos="random" departSpeed="0.00" arrivalPos="random" arrivalSpeed="0.00" route="r111" />
	<vehicle id="h37403c1:1" type="CarDefault" depart="25318.00" departPos="random" departSpeed="0.00" arrivalPos="random" arrivalSpeed="0.00" route="r112" />
	<vehicle id="h69745c1:1" type="CarDefault" depart="25318.00" departPos="random" departSpeed="0.00" arrivalPos="random" arrivalSpeed="0.00" route="r113" />
	<vehicle id="carIn33037:1" type="CarDefault" depart="25319.00" departPos="random" departSpeed="0.00" arrivalPos="random" arrivalSpeed="0.00" route="r58" />
	<vehicle id="carIn5204:1" type="CarDefault" depart="25319.00" departPos="random" departSpeed="0.00" arrivalPos="random" arrivalSpeed="0.00" route="r114" />
	<vehicle id="h913c1:1" type="CarDefault" depart="25320.00" departPos="random" departSpeed="0.00" arrivalPos="random" arrivalSpeed="0.00" route="r115" />
	<vehicle id="h26391c1:1" type="CarDefault" depart="25322.00" departPos="random" departSpeed="0.00" arrivalPos="random" arrivalSpeed="0.00" route="r116" />
	<vehicle id="carIn24231:1" type="CarDefault" depart="25324.00" departPos="random" departSpeed="0.00" arrivalPos="random" arrivalSpeed="0.00" route="r117" />
	<vehicle id="carIn31556:1" type="CarDefault" depart="25325.00" departPos="random" departSpeed="0.00" arrivalPos="random" arrivalSpeed="0.00" route="r118" />
	<vehicle id="carIn22924:1" type="CarDefault" depart="25326.00" departPos="random" departSpeed="0.00" arrivalPos="random" arrivalSpeed="0.00" route="r119" />
	<vehicle id="h72787c1:1" type="CarDefault" depart="25326.00" departPos="random" departSpeed="0.00" arrivalPos="random" arrivalSpeed="0.00" route="r120" />
	<vehicle id="h58420c2:1" type="CarDefault" depart="25327.00" departPos="random" departSpeed="0.00" arrivalPos="random" arrivalSpeed="0.00" route="r121" />
	<vehicle id="carIn16875:1" type="CarDefault" depart="25329.00" departPos="random" departSpeed="0.00" arrivalPos="random" arrivalSpeed="0.00" route="r122" />
	<vehicle id="carIn43399:1" type="CarDefault" depart="25329.00" departPos="random" departSpeed="0.00" arrivalPos="random" arrivalSpeed="0.00" route="r123" />
	<vehicle id="h9056c1:1" type="CarDefault" depart="25330.00" departPos="random" departSpeed="0.00" arrivalPos="random" arrivalSpeed="0.00" route="r124" />
	<vehicle id="carIn2465:1" type="CarDefault" depart="25333.00" departPos="random" departSpeed="0.00" arrivalPos="random" arrivalSpeed="0.00" route="r125" />
	<vehicle id="h21113c1:1" type="CarDefault" depart="25333.00" departPos="random" departSpeed="0.00" arrivalPos="random" arrivalSpeed="0.00" route="r126" />
	<vehicle id="carIn4804:1" type="CarDefault" depart="25334.00" departPos="random" departSpeed="0.00" arrivalPos="random" arrivalSpeed="0.00" route="r127" />
	<vehicle id="carIn5772:1" type="CarDefault" depart="25334.00" departPos="random" departSpeed="0.00" arrivalPos="random" arrivalSpeed="0.00" route="r128" />
	<vehicle id="h47071c1:1" type="CarDefault" depart="25336.00" departPos="random" departSpeed="0.00" arrivalPos="random" arrivalSpeed="0.00" route="r129" />
	<vehicle id="h11824c1:3" type="CarDefault" depart="25338.00" departPos="random" departSpeed="0.00" arrivalPos="random" arrivalSpeed="0.00" route="r130" />
	<vehicle id="h12127c1:1" type="CarDefault" depart="25339.00" departPos="random" departSpeed="0.00" arrivalPos="random" arrivalSpeed="0.00" route="r131" />
	<vehicle id="h16088c1:1" type="CarDefault" depart="25339.00" departPos="random" departSpeed="0.00" arrivalPos="random" arrivalSpeed="0.00" route="r132" />
	<vehicle id="h40504c1:1" type="CarDefault" depart="25339.00" departPos="random" departSpeed="0.00" arrivalPos="random" arrivalSpeed="0.00" route="r133" />
	<vehicle id="carIn26532:1" type="CarDefault" depart="25340.00" departPos="random" departSpeed="0.00" arrivalPos="random" arrivalSpeed="0.00" route="r134" />
	<vehicle id="carIn39163:1" type="CarDefault" depart="25341.00" departPos="random" departSpeed="0.00" arrivalPos="random" arrivalSpeed="0.00" route="r135" />
	<vehicle id="h23285c1:1" type="CarDefault" depart="25341.00" departPos="random" departSpeed="0.00" arrivalPos="random" arrivalSpeed="0.00" route="r136" />
	<vehicle id="carIn12968:1" type="CarDefault" depart="25343.00" departPos="random" departSpeed="0.00" arrivalPos="random" arrivalSpeed="0.00" route="r137" />
	<vehicle id="carIn26841:1" type="CarDefault" depart="25343.00" departPos="random" departSpeed="0.00" arrivalPos="random" arrivalSpeed="0.00" route="r138" />
	<vehicle id="h22675c1:1" type="CarDefault" depart="25343.00" departPos="random" departSpeed="0.00" arrivalPos="random" arrivalSpeed="0.00" route="r139" />
	<vehicle id="carIn23430:1" type="CarDefault" depart="25344.00" departPos="random" departSpeed="0.00" arrivalPos="random" arrivalSpeed="0.00" route="r140" />
	<vehicle id="carIn13375:1" type="CarDefault" depart="25345.00" departPos="random" departSpeed="0.00" arrivalPos="random" arrivalSpeed="0.00" route="r141" />
	<vehicle id="carIn41147:1" type="CarDefault" depart="25345.00" departPos="random" departSpeed="0.00" arrivalPos="random" arrivalSpeed="0.00" route="r142" />
	<vehicle id="carIn38784:1" type="CarDefault" depart="25346.00" departPos="random" departSpeed="0.00" arrivalPos="random" arrivalSpeed="0.00" route="r143" />
	<vehicle id="h68688c1:1" type="CarDefault" depart="25346.00" departPos="random" departSpeed="0.00" arrivalPos="random" arrivalSpeed="0.00" route="r144" />
	<vehicle id="h26926c2:1" type="CarDefault" depart="25347.00" departPos="random" departSpeed="0.00" arrivalPos="random" arrivalSpeed="0.00" route="r145" />
	<vehicle id="h58899c1:1" type="CarDefault" depart="25349.00" departPos="random" departSpeed="0.00" arrivalPos="random" arrivalSpeed="0.00" route="r146" />
	<vehicle id="h51649c2:1" type="CarDefault" depart="25350.00" departPos="random" departSpeed="0.00" arrivalPos="random" arrivalSpeed="0.00" route="r147" />
	<vehicle id="carIn9627:1" type="CarDefault" depart="25351.00" departPos="random" departSpeed="0.00" arrivalPos="random" arrivalSpeed="0.00" route="r148" />
	<vehicle id="h4510c1:1" type="CarDefault" depart="25352.00" departPos="random" departSpeed="0.00" arrivalPos="random" arrivalSpeed="0.00" route="r149" />
	<vehicle id="carIn20779:1" type="CarDefault" depart="25353.00" departPos="random" departSpeed="0.00" arrivalPos="random" arrivalSpeed="0.00" route="r150" />
	<vehicle id="carIn6861:1" type="CarDefault" depart="25353.00" departPos="random" departSpeed="0.00" arrivalPos="random" arrivalSpeed="0.00" route="r151" />
	<vehicle id="carIn46986:1" type="CarDefault" depart="25354.00" departPos="random" departSpeed="0.00" arrivalPos="random" arrivalSpeed="0.00" route="r152" />
	<vehicle id="h45628c1:1" type="CarDefault" depart="25355.00" departPos="random" departSpeed="0.00" arrivalPos="random" arrivalSpeed="0.00" route="r153" />
	<vehicle id="carIn46657:1" type="CarDefault" depart="25356.00" departPos="random" departSpeed="0.00" arrivalPos="random" arrivalSpeed="0.00" route="r154" />
	<vehicle id="carIn27101:1" type="CarDefault" depart="25360.00" departPos="random" departSpeed="0.00" arrivalPos="random" arrivalSpeed="0.00" route="r155" />
	<vehicle id="h40174c1:1" type="CarDefault" depart="25360.00" departPos="random" departSpeed="0.00" arrivalPos="random" arrivalSpeed="0.00" route="r156" />
	<vehicle id="carIn44814:1" type="CarDefault" depart="25363.00" departPos="random" departSpeed="0.00" arrivalPos="random" arrivalSpeed="0.00" route="r157" />
	<vehicle id="h54885c1:1" type="CarDefault" depart="25363.00" departPos="random" departSpeed="0.00" arrivalPos="random" arrivalSpeed="0.00" route="r158" />
	<vehicle id="h10552c1:1" type="CarDefault" depart="25365.00" departPos="random" departSpeed="0.00" arrivalPos="random" arrivalSpeed="0.00" route="r159" />
	<vehicle id="h21003c1:1" type="CarDefault" depart="25365.00" departPos="random" departSpeed="0.00" arrivalPos="random" arrivalSpeed="0.00" route="r160" />
	<vehicle id="h28964c1:1" type="CarDefault" depart="25366.00" departPos="random" departSpeed="0.00" arrivalPos="random" arrivalSpeed="0.00" route="r161" />
	<vehicle id="h67924c1:1" type="CarDefault" depart="25367.00" departPos="random" departSpeed="0.00" arrivalPos="random" arrivalSpeed="0.00" route="r162" />
	<vehicle id="h43950c1:1" type="CarDefault" depart="25368.00" departPos="random" departSpeed="0.00" arrivalPos="random" arrivalSpeed="0.00" route="r163" />
	<vehicle id="h50636c1:1" type="CarDefault" depart="25369.00" departPos="random" departSpeed="0.00" arrivalPos="random" arrivalSpeed="0.00" route="r164" />
	<vehicle id="h3651c1:1" type="CarDefault" depart="25370.00" departPos="random" departSpeed="0.00" arrivalPos="random" arrivalSpeed="0.00" route="r165" />
	<vehicle id="h67627c1:1" type="CarDefault" depart="25370.00" departPos="random" departSpeed="0.00" arrivalPos="random" arrivalSpeed="0.00" route="r166" />
	<vehicle id="h68873c2:1" type="CarDefault" depart="25370.00" departPos="random" departSpeed="0.00" arrivalPos="random" arrivalSpeed="0.00" route="r167" />
	<vehicle id="carIn13413:1" type="CarDefault" depart="25371.00" departPos="random" departSpeed="0.00" arrivalPos="random" arrivalSpeed="0.00" route="r168" />
	<vehicle id="carIn17210:1" type="CarDefault" depart="25371.00" departPos="random" departSpeed="0.00" arrivalPos="random" arrivalSpeed="0.00" route="r169" />
	<vehicle id="carIn43018:1" type="CarDefault" depart="25371.00" departPos="random" departSpeed="0.00" arrivalPos="random" arrivalSpeed="0.00" route="r170" />
	<vehicle id="h52230c1:1" type="CarDefault" depart="25373.00" departPos="random" departSpeed="0.00" arrivalPos="random" arrivalSpeed="0.00" route="r171" />
	<vehicle id="carIn37876:1" type="CarDefault" depart="25374.00" departPos="random" departSpeed="0.00" arrivalPos="random" arrivalSpeed="0.00" route="r172" />
	<vehicle id="carIn6027:1" type="CarDefault" depart="25374.00" departPos="random" departSpeed="0.00" arrivalPos="random" arrivalSpeed="0.00" route="r173" />
	<vehicle id="h60825c1:1" type="CarDefault" depart="25374.00" departPos="random" departSpeed="0.00" arrivalPos="random" arrivalSpeed="0.00" route="r174" />
	<vehicle id="h69957c1:1" type="CarDefault" depart="25375.00" departPos="random" departSpeed="0.00" arrivalPos="random" arrivalSpeed="0.00" route="r175" />
	<vehicle id="h47437c1:1" type="CarDefault" depart="25377.00" departPos="random" departSpeed="0.00" arrivalPos="random" arrivalSpeed="0.00" route="r176" />
	<vehicle id="h54203c1:1" type="CarDefault" depart="25377.00" departPos="random" departSpeed="0.00" arrivalPos="random" arrivalSpeed="0.00" route="r177" />
	<vehicle id="carIn14046:1" type="CarDefault" depart="25378.00" departPos="random" departSpeed="0.00" arrivalPos="random" arrivalSpeed="0.00" route="r178" />
	<vehicle id="h12581c1:1" type="CarDefault" depart="25380.00" departPos="random" departSpeed="0.00" arrivalPos="random" arrivalSpeed="0.00" route="r179" />
	<vehicle id="carIn43942:1" type="CarDefault" depart="25381.00" departPos="random" departSpeed="0.00" arrivalPos="random" arrivalSpeed="0.00" route="r180" />
	<vehicle id="randUni7058:1" type="CarDefault" depart="25381.00" departPos="random" departSpeed="0.00" arrivalPos="random" arrivalSpeed="0.00" route="r181" />
	<vehicle id="randUni7816:1" type="CarDefault" depart="25381.00" departPos="random" departSpeed="0.00" arrivalPos="random" arrivalSpeed="0.00" route="r182" />
	<vehicle id="h47585c1:1" type="CarDefault" depart="25382.00" departPos="random" departSpeed="0.00" arrivalPos="random" arrivalSpeed="0.00" route="r183" />
	<vehicle id="h7078c1:1" type="CarDefault" depart="25382.00" departPos="random" departSpeed="0.00" arrivalPos="random" arrivalSpeed="0.00" route="r184" />
	<vehicle id="carIn36683:1" type="CarDefault" depart="25384.00" departPos="random" departSpeed="0.00" arrivalPos="random" arrivalSpeed="0.00" route="r185" />
	<vehicle id="carIn45133:1" type="CarDefault" depart="25385.00" departPos="random" departSpeed="0.00" arrivalPos="random" arrivalSpeed="0.00" route="r186" />
	<vehicle id="carIn14124:1" type="CarDefault" depart="25388.00" departPos="random" departSpeed="0.00" arrivalPos="random" arrivalSpeed="0.00" route="r187" />
	<vehicle id="h29063c1:3" type="CarDefault" depart="25388.00" departPos="random" departSpeed="0.00" arrivalPos="random" arrivalSpeed="0.00" route="r188" />