<?xml version='1.0' encoding='utf-8'?>
<routes>
	<route id="r0" edges="24450827 37866821#1 37866821#2 37720965#0 37720965#1 502143950 -30454726#1 -30454726#0 33466813" />
	<route id="r1" edges="-192108777#3 22636361#0" />
	<route id="r2" edges="-24600987#0 -4834964#2 -100654686 100654687 -100654687 100654686 4834964#2 4834963#1 24600987#1 481221028#0 -30047549#2 -30047549#1 -30047549#0 481221027#1 -30047548 28616375 30454725#0 30454725#4 30454726#0 30454726#1 23050725 23050727" />
	<route id="r3" edges="-4472606#1 -44658727#10 -44658727#9 -44658727#7 -44658727#6 -44658727#4 -44658727#2 -44658727#1 -44658727#0 -636864248 -37866820 -520012239#1 -4263428#5 -4263428#2 -4263428#1 541741587#0 4937392#0 4937392#1 4541293#0 4541293#3 23076520 23102758#0 -317697975#0 -371391166#1 -371391166#0 -4541289#6 -4541289#4 -4541289#1 -20485036#1 23072648#0" />
	<route id="r4" edges="-4899745#2 -317697975#6 -317697975#4 -317697975#2 -317697975#1 -317697975#0 -371391166#1 -371391166#0 -366887650#2 -20484465#3 -20484465#2 -20484463#1 23072582 -128396774#5 128396776#0 -128396775" />
	<route id="r5" edges="128676689#5 37747008#0 gneE27 128185886#0 128185886#2 37747501 4541289#0 4541289#1 4541289#2 4541289#5 371391166#0 371391166#1 317697975#0 -23102758#5 -23076520 136553370#0 136553370#1 136553370#2 -4287187#4 -4287187#3 -4287187#1 -37720965#1 -37720965#0 -37866821#3 -37866821#1 -130277328#1 -130277328#0 4472602#0 44658727#0 44658727#1 44658727#2 44658727#3 44658727#6 44658727#7 44658727#9 44658727#10 44658728#0 33492193#0" />
	<route id="r6" edges="55668404#1 83806426#0 83806426#2 83806426#3 83806426#4 -372245390#1 -37692198#3 -37692198#1 56760104#0 56760104#1 37692199#0 556290242#0 541741587#0 4937392#0 4937392#1 4541293#0 4541293#3 136553370#0 136553370#1 136553370#2 4287187#6 -59433209#2" />
	<route id="r7" edges="4395933#9 37747133#0 37747008#0 gneE27 128185886#0 128185886#2 37747501 4541289#0 4541289#1 4541289#2 4541289#5 371391166#0 371391166#1 317697975#0 317697975#1 317697975#2 14678786#0 38613436#1 372341252#1 55814733" />
	<route id="r8" edges="20485040#7 128185886#0 128185886#2 37747501 4541289#0 4541289#1 4541289#2 4541289#5 371391166#0 371391166#1 317697975#0 317697975#1 317697975#2 14678786#0 38613436#1 -372341252#0 -4541293#8 14678903" />
	<route id="r9" edges="128775158#0 442928297 128775159#0 192108777#0 -4937387#2 -22770275#1 -317697975#6 -317697975#4 -317697975#2 -317697975#1 -317697975#0 -371391166#1 -371391166#0 -4541289#6 -4541289#4 -4541289#1 -4541289#0 -37747501 37747503#0 37747503#1 -70726569 gneE25 37747135#1 37747645 -4395933#9 -4395933#8 -4395933#7 -4395933#6 -4395933#4 4540245#0 4540245#2 4540245#3" />
	<route id="r10" edges="317697975#5 22770275#0 -29269011#1 29269011#0 -22770275#1 -317697975#6 -317697975#4 -317697975#2 -317697975#1 -317697975#0 -371391166#1 -371391166#0 -366887650#2 -20484465#3 -20484465#2 -20484463#1 -40260270#5 -40260270#3 -40260270#1 -40260270#0 38098902#0 55668400" />
	<route id="r11" edges="317697975#5 22770275#0 22770275#2 3818299#0 23050921#0 23050922" />
	<route id="r12" edges="317697975#5 4899745#0 481221024#0 37691097 481224216#0 481224216#1 481224216#2 481224216#4 379071736 30454721#0 229542365#0 229542372" />
	<route id="r13" edges="317697975#5 4899745#0 481221024#0 37691097 283633789 -37812705#1 -37691265#0 gneE54 -375581292#1 -375581292#0 -375581291#1 -4287187#9 -4287187#8 -4287187#6 -4287187#4 -4287187#3 -4287187#1 -37720965#1 -37720965#0 -37866821#3 -37866821#1 -130277328#1 -130277328#0 -354359921#2 -575044518 -13904687" />
	<route id="r14" edges="481221024#0 37691097 283633789 -37812705#1 -37691265#0 gneE54 -375581292#1 -375581292#0 -375581291#1 -4287187#9 47861482#0" />
	<route id="r15" edges="481221024#0 37691097 283633789 -37812705#1 -37691265#0 gneE54 -375581292#1 -375581292#0 -375581291#1 22770310" />
	<route id="r16" edges="481221024#0 37691097 283633789 -37812705#1 -37691265#0 gneE54 -375581292#1 37691269 -137621705#1 -137621705#0 -4541293#8 -4541293#7 -4541293#5 -4541293#4 -4541293#3 -4541293#1 -317697974 -4937392#0 55814730#0 55814730#3 59433203#2 -547766101#0 306917254 -128396774#7 -128396774#6 -128396774#5 128396776#0 128396776#2" />
	<route id="r17" edges="372477029 -4385390#3 -4385390#2 4825324#0 151364#0 46160696#0 37690117 46160695#1 -282243995#2 -44668398#2 -4472600#2 -44658727#10 -44658727#9 -44658727#7 -44658727#6 -44658727#4 -44658727#2 -44658727#1 -44658727#0 -636864248 -37866820 -520012239#1 -4263428#5 -138406903#1 30454632#0 30454635 37720965#0 37720965#1 502143950 -30454726#1 -30454726#0 33466813" />
	<route id="r18" edges="-547766101#3 -547766101#2 -547766101#0 -556290239#4 -556290239#2 -556290239#1 -556290239#0 20484463#0 20484463#2 20484465#3 366887650#0 371391166#0 371391166#1 317697975#0 317697975#1 317697975#2 -22566801#4 -22566801#1 -140291444" />
	<route id="r19" edges="317183891#3 384401184#0 384401184#5 384401184#7 4395933#0 4395933#1 4395933#6 4395933#7 4395933#8 4395933#9 37747133#0 37747008#0 gneE27 128185886#0 128185886#2 37747501 4541289#0 4541289#1 4541289#2 4541289#5 371391166#0 371391166#1 317697975#0 317697975#1 317697975#2 14678786#0 38613436#1 -372341252#0 -4541293#8" />
	<route id="r20" edges="37691265#0 -30046887#4 31897262 -481224216#0 -37691097 -481221024#1 -4899745#2 -317697975#6 -317697975#4 -317697975#2 -317697975#1 -317697975#0 -371391166#1 -371391166#0 -366887650#2 -20484465#3 -20484465#2 -20484463#1 -3936652#3 -128005879#2 -128005879#0 128396774#1" />
	<route id="r21" edges="23050725 23050726 4287187#4 4287187#6 14677976#0 -4541293#4 -4541293#3 -4541293#1 -317697974 -4937392#0 -541741587#1 -556290242#1 -37692199#2 440034441#1 -192108787#1 -52881850#1 -548793704#1 3957139#1 12341239#0 12341238#0 4395994#0 4395994#2 556040851#0 556040851#1 147075690 31028290 229119089#0 -317027066#2 35078324#0" />
	<route id="r22" edges="23050725 23050726 4287187#4 4287187#6 14677976#0 -4541293#4 23076520 23102758#0 -317697975#0 -371391166#1 -371391166#0 -4541289#6 -4541289#4 -4541289#1 -4541289#0 -37747501 37747503#0 37747503#1 -70726569 gneE25 37747135#1 37747645 293281653#0 83806428#0 37747137#0 42293718#0 42293718#3 80479204 -85418326#0 -80479196" />
	<route id="r23" edges="49961185 114207515#0 -4385840#2 4263427#0 37865178 37865179#0 37865180#0 354359922 354359921#0 130277328#0 130277328#1 37866821#1 37866821#2 37720965#0 37720965#1 502143950 4287187#3 4287187#4 4287187#6 14677976#0 -4541293#4 136553370#0 59433202" />
	<route id="r24" edges="49961185 114207515#0 -4385840#2 4263427#0 37865178 37865179#0 37865180#0 354359922 354359921#0 -37866820 -520012239#1 -4263428#5 -4263428#2 -4263428#1 541741587#0 4937392#0 4937392#1 4541293#0 -23076565#1 -140667094#0" />
	<route id="r25" edges="3787951#0 gneE65 3787950#1 70410634#1 3787451 3789703#0 41851537#0 41851537#1 474506101#0 83806415 49961185 114207515#0 -4385840#2 4263427#0 37865178 37865179#0 37865180#0 354359922 354359921#0 130277328#0 130277328#1 37866821#1 37866821#2 37720965#0 37720965#1 502143950 4287187#3" />
	<route id="r26" edges="-34146295#1 -379071737#1 -379071736 -481224216#4 -481224216#3 -481224216#1 -481224216#0 -37691097 -481221024#1 -4899745#2 -317697975#6 -317697975#4 -317697975#2 -317697975#1 -317697975#0 -371391166#1 -371391166#0 -4541289#6 -4541289#4 -4541289#1 -4541289#0 -37747501 56007693#0 -128680991#5 4540070#5" />
	<route id="r27" edges="-34146295#1 -379071737#1 -379071736 -481224216#4 -481224216#3 -481224216#1 -481224216#0 -37691097 -481221024#1 -4899745#2 -363394751 -372341252#3 -372341252#1 -372341252#0 -4541293#8 -4541293#7 -4541293#5 -4541293#4 -4541293#3 -4541293#1 -317697974 -4937392#0 55814730#0 55814730#3 59433203#2 547766101#2 39476010#0 -405364257#3 -405364257#0" />
	<route id="r28" edges="-34146295#4 -34146295#3 -34146295#1 -379071737#1 -379071736 -481224216#4 -481224216#3 -481224216#1 -481224216#0 -37691097 -481221024#1 -4899745#2 -363394751 -372341252#3 -372341252#1 -372341252#0 -4541293#8 -4541293#7 -4541293#5 -4541293#4 -4541293#3 -4541293#1 -317697974 -4937392#0 -541741587#1 -556290242#1 -37692199#2 440034441#1 -192108787#1 -52881850#1 -114208220#2 -114208220#0 114208223#0" />
	<route id="r29" edges="55668404#1 83806426#0 83806426#2 83806426#3 83806426#4 -372245390#1 -37692198#3 -37692198#1 56760104#0 56760104#1 37692199#0 556290242#0 541741587#0 4937392#0 4937392#1 4541293#0 4541293#3 4541293#4 4541293#5 -229549553#1 -229549550" />
	<route id="r30" edges="24450827 37866821#1 37866821#2 37720965#0 37720965#1 502143950 4287187#3 4287187#4 -140310097#1" />
	<route id="r31" edges="128775158#0 442928297 128775159#0 192108777#0 -4937387#2 -22770275#1 -317697975#6 -317697975#4 -317697975#2 -317697975#1 -317697975#0 -371391166#1 -371391166#0 -4541289#6 -4541289#4 -4541289#1 -4541289#0 -37747501 37747503#0 37747503#1 -70726569 gneE25 37747135#1 37747645 293281653#0 83806428#0 -111286353#6 -111286353#1 4395858#0 -7990023#1 -7990020#3 7990022#0" />
	<route id="r32" edges="4396159#0 4396159#3 360319695#0 4396161#0 -150800558#2 -37692306 -150800557#1 -384401180 -37747137#1 4385874#0 4385874#1 37747728#0 37747133#0 37747008#0 gneE27 128185886#0 128185886#2 37747501 4541289#0 4541289#1 4541289#2 4541289#5 371391166#0 371391166#1 317697975#0 317697975#1 317697975#2 317697975#4 -39476005#2 -140294334 140294334 39476005#1 -317697975#4" />
	<route id="r33" edges="37691265#0 -30046887#4 31897262 -481224216#0 -37691097 -481221024#1 -4899745#2 -317697975#6 -317697975#4 -317697975#2 -317697975#1 -317697975#0 -371391166#1 -371391166#0 -4541289#6 -4541289#4 -4541289#1 -4541289#0 -37747501 56007693#0 -128680991#5 -4540070#4 -4540070#2 -20485040#6 -20485040#5 -20485040#4 -20485040#0" />
	<route id="r34" edges="128775158#0 442928297 128775159#0 192108777#0 -4937387#2 -22770275#1 -363394751 -372341252#3 -372341252#1 -372341252#0 -4541293#8 -4541293#7 -4541293#5 -4541293#4 -4541293#3 -4541293#1 -317697974 -4937392#0 -541741587#1 -556290242#1 -37692199#2 440034441#1 -37746962 -162745567#2 -162745567#1 -162745567#0 125865744#0 52288972#0 52288972#1 14047769#0 49961184#2 49961184#4" />
	<route id="r35" edges="37691265#0 -30046887#4 31897262 -481224216#0 -37691097 -481221024#1 -4899745#2 -363394751 -372341252#3 -372341252#1 -372341252#0 -4541293#8 -4541293#7 -4541293#5 -4541293#4 -4541293#3 -4541293#1 -317697974 -4937392#0 -541741587#1 -556290242#1 -37692199#2 440034441#1 -192108787#1 -14047759#6 -114208222#2 -114208222#0 -233718298#0" />
	<route id="r36" edges="37691265#0 -30046887#4 31897262 -481224216#0 -37691097 -481221024#1 -4899745#2 -317697975#6 -317697975#4 -317697975#2 -317697975#1 -317697975#0 -371391166#1 -371391166#0 -366887650#2 -20484465#3 -20484465#2 -20484463#1 -40260270#5 -40260270#3 -40260270#1 -40260270#0 38098902#0 38098902#2" />
	<route id="r37" edges="162745567#0 162745567#1 162745567#2 8080835 14047759#0 192108787#0 56760104#0 56760104#1 37692199#0 556290242#0 541741587#0 4937392#0 4937392#1 4541293#0 -23076565#1 -140667094#0" />
	<route id="r38" edges="3787951#0 gneE65 3787950#1 70410634#1 3787451 3789703#0 41851537#0 41851537#1 474506101#0 83806415 49961185 114207515#0 -4385840#2 4263427#0 37865178 37865179#0 37865180#0 354359922 354359921#0 -37866820 -520012239#1 -4263428#5 -4263428#2 -4263428#1 541741587#0 4937392#0 4937392#1 4541293#0 22820607#0" />
	<route id="r39" edges="23050725 23050727 -23050727 -23050725 -4287187#1 -37720965#1 -37720965#0 -37866821#3 -37866821#1 -130277328#1 -130277328#0 4472602#0 44658727#0 44658727#1 45530929#0 45530924#0 45530924#1" />
	<route id="r40" edges="128775158#0 442928297 128775159#0 192108777#0 -4937387#2 -22770275#1 -317697975#6 -317697975#4 -317697975#2 -317697975#1 -317697975#0 -371391166#1 -371391166#0 -4541289#6 -4541289#4 -4541289#1 -4541289#0 -37747501 37747503#0 37747503#1 -70726569 gneE25 37747135#1 37747645 -4395933#9 -4395933#8 -4395933#7 -4395933#6 -4395933#4 -4395933#0 -384401184#7 -384401184#6" />
	<route id="r41" edges="317697975#5 22770275#0 -29269011#1 29269011#0 -22770275#1 -317697975#6 -317697975#4 -317697975#2 -317697975#1 -317697975#0 -371391166#1 -371391166#0 -4541289#6 43175824#0" />
	<route id="r42" edges="481221024#0 37691097 283633789 -37812705#1 -37691265#0 gneE54 -375581292#1 -375581292#0 -375581291#1 -4287187#9 -4287187#8 -4287187#6 -4287187#4 -4287187#3 -4287187#1 -37720965#1 -37720965#0 -37866821#3 -37866821#1 -130277328#1 -130277328#0 4472602#0 44658727#0 44658727#1 45530929#0 45530924#0 45530924#1" />
	<route id="r43" edges="37691265#0 -30046887#4 31897262 -481224216#0 -37691097 -481221024#1 -4899745#2 -317697975#6 -317697975#4 -317697975#2 -317697975#1 -317697975#0 -371391166#1 -371391166#0 -366887650#2 -20484465#3 -20484465#2 -20484463#1 -40260270#5 -40260270#3 39944037#0" />
	<route id="r44" edges="49961185 114207515#0 -4385840#2 4263427#0 37865178 37865179#0 37865180#0 354359922 354359921#0 130277328#0 130277328#1 37866821#1 37866821#2 37720965#0 37720965#1 502143950 -30454726#1 -30454726#0 -30454725#4 -30454725#3 -30454724 -30454721#4 -30454721#3 -30454721#2 -30047545#3 -30047545#2 -30047541 30047545#3 30454721#2" />
	<route id="r45" edges="23050725 23050726 4287187#4 4287187#6 4287187#8 4287187#9 375581291#1 375581292#0 375581292#1 gneE55 37691265#0 37812705#0 37096954 4937390 22820549#0 22820549#2 155814819" />
	<route id="r46" edges="128676689#5 37747008#0 gneE27 128185886#0 128185886#2 37747501 4541289#0 4541289#1 4541289#2 4541289#5 371391166#0 371391166#1 317697975#0 -23102758#5 -23076520 136553370#0 59433202" />
	<route id="r47" edges="128775158#0 442928297 128775159#0 192108777#0 -4937387#2 -22770275#1 -363394751 -372341252#3 -372341252#1 -372341252#0 137621705#0 137621708#0 137621708#1 137621709#0 137621709#1" />
	<route id="r48" edges="12341246#0 12341246#3 49961185 114207515#0 -4385840#2 4263427#0 37865178 37865179#0 37865180#0 354359922 354359921#0 130277328#0 130277328#1 37866821#1 37866821#2 37720965#0 37720965#1 502143950 4287187#3 4287187#4 4287187#6 14677976#0 4541293#5 4541293#6 4541293#8 4541293#9 372341252#1 372341252#2 363394751 22770275#0 22770275#2 3818299#0 23050921#0 23050921#2" />
	<route id="r49" edges="37691265#0 -30046887#4 31897262 -481224216#0 -37691097 -481221024#1 -4899745#2 -363394751 -372341252#3 -372341252#1 -372341252#0 -4541293#8 -4541293#7 -4541293#5 -4541293#4 -4541293#3 -4541293#1 -317697974 -4937392#0 -541741587#1 -556290242#1 -37692199#2 440034441#1 -37746962 -13904675#6 13904690#0 13904690#1 -13904695#2" />
	<route id="r50" edges="37691265#0 -30046887#4 31897262 -481224216#0 283633789 -37812705#1 -37691265#0 gneE54 -375581292#1 -375581292#0 -375581291#1 -4287187#9 -4287187#8 -4287187#6 -4287187#4 -4287187#3 -4287187#1 -37720965#1 -37720965#0 -37866821#3 -37866821#1 -130277328#1 45619542" />
	<route id="r51" edges="128676689#5 37747008#0 gneE27 128185886#0 128185886#2 37747501 4541289#0 4541289#1 4541289#2 4541289#5 371391166#0 371391166#1 317697975#0 -23102758#5 -23076520 136553370#0 136553370#1 136553370#2 -4287187#4 -4287187#3 -30454726#1 33466812" />
	<route id="r52" edges="37746962 37692198#0 -114208262#2 -112410779#0 192108787#0 56760104#0 56760104#1 37692199#0 556290242#0 4263428#0 4263428#2 4263428#4 520012239#0 24450827 37866821#1 37866821#2 37720965#0 37720965#1 502143950 -30454726#1 -30454726#0 -30454725#4 -30454725#3 -30454724 30454721#5 30454721#6 30047536#0 30047536#1 481221026#0 4834977 -30047549#1" />
	<route id="r53" edges="128676689#5 37747008#0 gneE27 128185886#0 128185886#2 37747501 4541289#0 4541289#1 4541289#2 4541289#5 371391166#0 371391166#1 317697975#0 -23102758#5 -23076520 136553370#0 136553370#1 136553370#2 -4287187#4 -4287187#3 -4287187#1 -37720965#1 -37720965#0 -37866821#3 -37866821#1 -130277328#1 -130277328#0 -354359921#2 13904711" />
	<route id="r54" edges="23050725 23050726 4287187#4 4287187#6 14677976#0 -4541293#4 23076520 23102758#0 -317697975#0 -371391166#1 -371391166#0 -4541289#6 -4541289#4 -4541289#1 -4541289#0 -37747501 56007693#0 -128680991#5 -4540070#4 55814729#0 55814731" />
	<route id="r55" edges="12341246#0 12341246#3 49961185 114207515#0 -4385840#2 4263427#0 37865178 37865179#0 37865180#0 354359922 354359921#0 130277328#0 130277328#1 37866821#1 37866821#2 37720965#0 37720965#1 502143950 4287187#3 4287187#4 4287187#6 14677976#0 -4541293#4 136553370#0 59433202" />
	<route id="r56" edges="128775158#0 442928297 128775159#0 192108777#0 -4937387#2 -22770275#1 4899745#0 481221024#0 4937390 22820549#0 -155815976" />
	<route id="r57" edges="317697975#5 4899745#0 481221024#0 37691097 283633789 -37812705#1 -37691265#0 gneE54 -375581292#1 -375581292#0 -375581291#1 -4287187#9 -4287187#8 -4287187#6 -4287187#4 -4287187#3 -4287187#1 -37720965#1 -37720965#0 -37866821#3 -37866821#1 -130277328#1 -130277328#0 4472602#0 44658727#0 44658727#1 44658727#2 44658727#3 44658727#6 44658727#7 44658727#9 44658727#10 4472600#0 44668398#0 282243995#0 12341245#2 59183296" />
	<route id="r58" edges="481221024#0 37691097 283633789 -37812705#1 -37691265#0 gneE54 -375581292#1 37691269 -137621705#1 -137621705#0 4541293#9 -38613436#1 -14678786#2 -317697975#2 -317697975#1 -317697975#0 -371391166#1 -371391166#0 -366887650#2 -20484465#3 -20484465#2 -20484463#1 -40260270#5 39117800#0 39117800#1 55668395#0" />
	<route id="r59" edges="37691265#0 -30046887#4 31897262 -481224216#0 -37691097 -481221024#1 -4899745#2 -317697975#6 -317697975#4 -317697975#2 -317697975#1 -317697975#0 -371391166#1 -371391166#0 -4541289#6 -4541289#4 -4541289#1 -4541289#0 -37747501 37747503#0 37747503#1 -70726569 gneE25 37747135#1 37747645 293281653#0 83806428#0" />
	<route id="r60" edges="20485040#7 128185886#0 128185886#2 37747501 4541289#0 4541289#1 4541289#2 4541289#5 371391166#0 371391166#1 317697975#0 -23102758#5 -23076520 -4541293#3 -4541293#1 -23076566" />
	<route id="r61" edges="37691265#0 -30046887#4 31897262 -481224216#0 -37691097 -481221024#1 -4899745#2 -363394751 -372341252#3 -372341252#1 -372341252#0 -4541293#8 -4541293#7 -4541293#5 -4541293#4 -4541293#3 -4541293#1 -317697974 -4937392#0 -541741587#1 4263428#0 13904686#0" />
	<route id="r62" edges="4396159#0 4396159#3 360319695#0 4396161#0 -150800558#2 -37692306 -150800557#1 -384401180 -37747137#1 4385874#0 4385874#1 37747728#0 37747133#0 37747008#0 gneE27 128185886#0 128185886#2 37747501 4541289#0 4541289#1 4541289#2 4541289#5 371391166#0 371391166#1 317697975#0 317697975#1 317697975#2 -22566801#4 -22566801#1 -140291444" />
	<route id="r63" edges="23050725 23050726 4287187#4 4287187#6 14677976#0 -4541293#4 23076520 23102758#0 -317697975#0 -371391166#1 -371391166#0 -4541289#6 -4541289#4 -4541289#1 -4541289#0 317149206" />
	<route id="r64" edges="3789702 43100899#0 162745567#0 14047760#0 -14047760#1 -162745567#0 -43100899#1 -3789702 4385842#0 4385842#1 83806415 49961185 114207515#0 -4385840#2 4263427#0 37865178 37865179#0 37865180#0 354359922 354359921#0 130277328#0 130277328#1 37866821#1 37866821#2 37720965#0 37720965#1 502143950 4287187#3 4287187#4 -140310097#1" />
	<route id="r65" edges="-34146295#1 -379071737#1 -379071736 -481224216#4 -481224216#3 -481224216#1 -481224216#0 -37691097 -481221024#1 -4899745#2 -317697975#6 -317697975#4 -317697975#2 -317697975#1 -317697975#0 -371391166#1 -371391166#0 -366887650#2 -37747500#8 -37747500#6 137329785#0 137329785#1 -20485039#0" />
	<route id="r66" edges="12341246#0 12341246#3 49961185 114207515#0 -4385840#2 4263427#0 37865178 37865179#0 37865180#0 354359922 354359921#0 130277328#0 130277328#1 37866821#1 37866821#2 37720965#0 37720965#1 502143950 4287187#3 4287187#4 4287187#6 14677976#0 4541293#5 4541293#6 4541293#8 4541293#9 372341252#1 55814733" />
	<route id="r67" edges="20485040#7 128185886#0 128185886#2 37747501 4541289#0 4541289#1 4541289#2 4541289#5 371391166#0 371391166#1 317697975#0 317697975#1 317697975#2 317697975#4 317697975#5 4899745#0 481221024#0 37691097 481224216#0 481224216#1 481224216#2 481224216#4 379071736 30454721#0 30454721#1 -30047545#3 -30047545#2 -30047545#1" />
	<route id="r68" edges="128775158#0 442928297 128775159#0 192108777#0 -4937387#2 -22770275#1 -317697975#6 -317697975#4 -317697975#2 -317697975#1 -317697975#0 -371391166#1 -371391166#0 -4541289#6 -4541289#4 -4541289#1 -4541289#0 -37747501 37747503#0 37747503#1 -70726569 gneE25 37747135#1 37747645 293281653#0 83806428#0 -111286353#6 -111286353#1 -7990024#1 41565485#0 -317183891#1 41565490#0" />
	<route id="r69" edges="37691265#0 -30046887#4 31897262 -481224216#0 283633789 -37812705#1 -37691265#0 gneE54 -375581292#1 -375581292#0 -375581291#1 -4287187#9 -4287187#8 -4287187#6 -4287187#4 -4287187#3 -4287187#1 -37720965#1 -37720965#0 -37866821#3 -37866821#1 -130277328#1 -130277328#0 -354359921#2 -354359922 -37865180#1 -37865179#1 -37865178 50214631#0 584286612#0 584286613 125865744#0 52288972#0 14047770#0" />
	<route id="r70" edges="4395933#9 37747133#0 37747008#0 gneE27 128185886#0 128185886#2 37747501 4541289#0 4541289#1 4541289#2 4541289#5 371391166#0 371391166#1 317697975#0 317697975#1 317697975#2 14678786#0 38613436#1 372341252#1 372341252#2 55814737" />
	<route id="r71" edges="481221024#0 37691097 283633789 -37812705#1 -37691265#0 gneE54 -375581292#1 37691269 -137621705#1 -137621705#0 4541293#9 -38613436#1 -14678786#2 -317697975#2 -317697975#1 -317697975#0 -371391166#1 -371391166#0 -4541289#6 -4541289#4 -4541289#1 -4541289#0 -37747501 37747503#0 37747503#1 -70726569 gneE25 160963287#0 160963287#1 55668414#0 55668420#1" />
	<route id="r72" edges="37692198#0 -114208262#2 -112410779#0 192108787#0 56760104#0 56760104#1 37692199#0 556290242#0 541741587#0 4937392#0 4937392#1 4541293#0 4541293#3 4541293#4 4541293#5 4541293#6 4541293#8 137621705#0 137621708#0 137621708#1 137621709#0 137621707" />
	<route id="r73" edges="23050725 23050727 -23050727 -23050725 -4287187#1 -37720965#1 -37720965#0 -37866821#3 -37866821#1 -130277328#1 -130277328#0 4472602#0 44658727#0 44658727#1 -12341215#2 -12341215#1 -7664730#5 8045273#0 8045273#3 45825602#0 45825602#1 45825602#2" />
	<route id="r74" edges="-34146295#1 -379071737#1 -379071736 -481224216#4 -481224216#3 -481224216#1 -481224216#0 -37691097 -481221024#1 -4899745#2 -317697975#6 -317697975#4 -317697975#2 -317697975#1 -317697975#0 -371391166#1 -371391166#0 -4541289#6 -4541289#4 -4541289#1 -4541289#0 -37747501 37747503#0 37747503#1 -70726569 gneE25" />
	<route id="r75" edges="37692198#0 -114208262#2 -112410779#0 192108787#0 56760104#0 56760104#1 37692199#0 556290242#0 541741587#0 4937392#0 4937392#1 4541293#0 4541293#3 136553370#0 136553370#1 136553370#2 4287187#6 -59433209#2" />
	<route id="r76" edges="37691265#0 -30046887#4 31897262 -481224216#0 -37691097 -481221024#1 -4899745#2 -317697975#6 -39476005#2 -39476005#0 22566803" />
	<route id="r77" edges="128775158#0 442928297 128775159#0 192108777#0 -4937387#2 -22770275#1 -363394751 -372341252#3 -372341252#1 -372341252#0 -4541293#8 -4541293#7 -4541293#5 -4541293#4 -4541293#3 -4541293#1 -317697974 -4937392#0 -541741587#1 -556290242#1 -37692199#2 440034441#1 -192108787#1 -52881850#1 -548793704#1 3957139#1 12341239#0 12341238#0 338075835#0 128005550 49961188#0 14047787" />
	<route id="r78" edges="317697975#5 22770275#0 22770275#2 3818299#0 23050921#0 23050921#2" />
	<route id="r79" edges="37691265#0 -30046887#4 31897262 -481224216#0 -37691097 -481221024#1 -4899745#2 -317697975#6 -317697975#4 -317697975#2 -317697975#1 -317697975#0 -371391166#1 -371391166#0 -366887650#2 -20484465#3 -20484465#2 23072583#0" />
	<route id="r80" edges="37691265#0 -30046887#4 31897262 -481224216#0 -37691097 -481221024#1 -4899745#2 -317697975#6 -317697975#4 -317697975#2 -317697975#1 -317697975#0 -371391166#1 -371391166#0 -4541289#6 -4541289#4 -43175828#2 132607382#1" />
	<route id="r81" edges="23050725 23050726 4287187#4 4287187#6 4287187#8 4287187#9 375581291#1 375581292#0 37691269 -137621705#1 137621708#0 -137621704" />
	<route id="r82" edges="37691265#0 -30046887#4 31897262 -481224216#0 283633789 -37812705#1 -37691265#0 gneE54 -375581292#1 -375581292#0 -375581291#1 -4287187#9 -4287187#8 -4287187#6 -4287187#4 -4287187#3 -4287187#1 -37720965#1 -37720965#0 -37866821#3 -37866821#1 -130277328#1 -130277328#0 -354359921#2 -354359922 -37865180#1 -37865179#1 -37865178 50214631#0 584286612#0 584286613 -43100899#1 -3789702 4385842#0 4385842#1" />
	<route id="r83" edges="-4899745#2 -317697975#6 -317697975#4 -317697975#2 -317697975#1 -317697975#0 -371391166#1 -371391166#0 -4541289#6 -4541289#4 -4541289#1 -4541289#0 -37747501 37747503#0 37747503#1 -70726569 gneE25 37747135#1 37747645 293281653#0 83806428#0 37747137#0 384401180 150800557#0 37692306 24450825#0 24450825#1 37692282#5 -4395890" />
	<route id="r84" edges="4395933#9 37747133#0 37747008#0 gneE27 128185886#0 128185886#2 37747501 4541289#0 4541289#1 4541289#2 4541289#5 371391166#0 371391166#1 317697975#0 -23102758#5 -23076520 136553370#0 136553370#1 136553370#2 4287187#6 4287187#8 47861482#0" />
	<route id="r85" edges="4934683 -4825323#1 -405546346 405546346 4825323#1 -4934683 151364#0 46160696#0 37690117 46160695#1 -282243995#2 -44668398#2 -4472600#2 -44658727#10 -44658727#9 -44658727#7 -44658727#6 -44658727#4 -44658727#2 -44658727#1 -44658727#0 -636864248 -37866820 -520012239#1 -4263428#5 -4263428#2 -4263428#1 541741587#0 4937392#0 4937392#1 4541293#0 4541293#3 136553370#0 136553370#1" />
	<route id="r86" edges="192108786#1 192108786#2 12341238#0 338075835#0 128005550 43137181#0 49961187#0 37692415#0 356748752#0 356748753#0 52881850#0 192108787#0 56760104#0 56760104#1 37692199#0 556290242#0 541741587#0 4937392#0 4937392#1 4541293#0 4541293#3 4541293#4 4541293#5 4541293#6 4541293#8 137621705#0 137621708#0 137621708#1 137621709#0 137621707" />
	<route id="r87" edges="3789702 43100899#0 162745567#0 162745567#1 162745567#2 8080835 14047759#0 192108787#0 56760104#0 56760104#1 37692199#0 556290242#0 541741587#0 4937392#0 4937392#1 -23076566" />
	<route id="r88" edges="24450827 37866821#1 37866821#2 37720965#0 37720965#1 502143950 4287187#3 4287187#4 4287187#6 14677976#0 -4541293#4 23076520 23102758#0 -317697975#0 -371391166#1 -371391166#0 -4541289#6 -4541289#4 -43175828#2 132607382#1" />
	<route id="r89" edges="481221024#0 37691097 283633789 -37812705#1 -37691265#0 gneE54 -375581292#1 37691269 -137621705#1 -137621705#0 -4541293#8 -4541293#7 -4541293#5 -4541293#4 -4541293#3 -4541293#1 -317697974 -4937392#0 -541741587#1 -556290242#1 -37692199#2 440034441#1 -192108787#1 112410779#0 114208262#0 -37692198#1 56760104#0 -38062538" />
	<route id="r90" edges="37691265#0 -30046887#4 31897262 -481224216#0 -37691097 -481221024#1 -4899745#2 -317697975#6 -317697975#4 -317697975#2 -317697975#1 -317697975#0 -371391166#1 -371391166#0 -366887650#2 -20484465#3 -20484465#2 -20484463#1 -3936652#3 -128005879#2 -128005879#0 -128396774#0 3936650" />
	<route id="r91" edges="128676689#5 37747008#0 gneE27 128185886#0 128185886#2 37747501 4541289#0 4541289#1 4541289#2 4541289#5 371391166#0 371391166#1 317697975#0 -23102758#5 -23076520 136553370#0 136553370#1 136553370#2 -4287187#4 -4287187#3 -4287187#1 -37720965#1 -37720965#0 -37866821#3 -37866821#1 -130277328#1 -130277328#0 4472602#0 44658727#0 44658727#1 45530929#0 45530924#0 45530924#1" />
	<route id="r92" edges="49961185 114207515#0 -4385840#2 4263427#0 37865178 37865179#0 37865180#0 354359922 354359921#0 130277328#0 130277328#1 37866821#1 37866821#2 37720965#0 37720965#1 502143950 4287187#3 4287187#4 4287187#6 4287187#8 4287187#9 30046889 30046891#0 30046891#1" />
	<route id="r93" edges="372838324#0 372838324#4 372838324#5 362939724#1 3788281#0 70595235#0 362939725 70595240 3787451 3789703#0 41851537#0 41851537#1 474506101#0 83806415 49961185 114207515#0 -4385840#2 4263427#0 37865178 37865179#0 37865180#0 354359922 354359921#0 130277328#0 130277328#1 37866821#1 37866821#2 37720965#0 37720965#1 502143950 23050725 23050727 -23050727 -23050725 -4287187#1 -37720965#1" />
	<route id="r94" edges="4396159#0 4396159#3 360319695#0 4396161#0 -150800558#2 -37692306 -150800557#1 -384401180 -37747137#1 4385874#0 4385874#1 83806426#0 83806426#2 83806426#3 83806426#4 -372245390#1 -37692198#3 -37692198#1 56760104#0 56760104#1 37692199#0 556290242#0 541741587#0 4937392#0 4937392#1 4541293#0 4541293#3 136553370#0 136553370#1 136553370#2 -4287187#4 -23050726" />
	<route id="r95" edges="23050725 23050726 4287187#4 4287187#6 4287187#8 4287187#9 30046889 -30046888#0 31897169#2 -30046890 31897261#2" />
	<route id="r96" edges="-34146295#1 -379071737#1 -379071736 -481224216#4 -481224216#3 -481224216#1 -481224216#0 -37691097 -481221024#1 -4899745#2 -363394751 -372341252#3 -372341252#1 -372341252#0 -4541293#8 -4541293#7 -229549553#1 -229549550" />
	<route id="r97" edges="37691265#0 -30046887#4 -30046887#1 -30046887#0 191453245 481224216#4 379071736 30454721#0 30454721#1 -30047545#3 -30047545#2 -30047545#1 30047537 -30047539#0" />
	<route id="r98" edges="12341246#0 12341246#3 49961185 114207515#0 -4385840#2 4263427#0 37865178 37865179#0 37865180#0 354359922 354359921#0 130277328#0 130277328#1 37866821#1 37866821#2 37720965#0 37720965#1 502143950 4287187#3 4287187#4 4287187#6 4287187#8 47861482#0" />
	<route id="r99" edges="23050725 23050726 4287187#4 4287187#6 4287187#8 4287187#9 375581291#1 375581292#0 375581292#1 gneE55 37691265#0 37812705#0 37096954 4937390 4287188#2 137621918#0" />
	<route id="r100" edges="128676689#5 37747008#0 gneE27 128185886#0 128185886#2 37747501 4541289#0 4541289#1 4541289#2 4541289#5 371391166#0 371391166#1 317697975#0 317697975#1 317697975#2 317697975#4 317697975#5 22770275#0 22770275#2 3818299#0 23050921#0 23050921#2" />
	<route id="r101" edges="128775158#0 442928297 128775159#0 192108777#0 -4937387#2 -22770275#1 -363394751 -372341252#3 -372341252#1 -372341252#0 -4541293#8 -4541293#7 -4541293#5 -4541293#4 -4541293#3 -4541293#1 -317697974 -4937392#0 -541741587#1 -556290242#1 -37692199#2 440034441#1 -192108787#1 112410779#0 112410779#1 372245389#0 -3979042#1 -3979042#0 319624628 49961187#0 37692415#0 356748752#0" />