<?xml version='1.0' encoding='utf-8'?>
<additional>
	<vType id="CarDefault" accel="3.0" decel="6.0" length="5.0" minGap="2.5" maxSpeed="50.0" sigma="0.5" />
	<vehicle id="11_4.120" depart="25200.0" route="r0" type="CarDefault" departLane="best" departPos="random_free" departSpeed="max" arrivalPos="max" />
	<vehicle id="1343_2.13" depart="25200.0" route="r1" type="CarDefault" departLane="best" departPos="random_free" departSpeed="max" arrivalPos="max" />
	<vehicle id="1358_1.8" depart="25200.0" route="r2" type="CarDefault" departLane="best" departPos="random_free" departSpeed="max" arrivalPos="max" />
	<vehicle id="1360_1.50" depart="25200.0" route="r3" type="CarDefault" departLane="best" departPos="random_free" departSpeed="max" arrivalPos="max" />
	<vehicle id="14_1.21" depart="25200.0" route="r4" type="CarDefault" departLane="best" departPos="random_free" departSpeed="max" arrivalPos="max" />
	<vehicle id="173_1.554" depart="25200.0" route="r5" type="CarDefault" departLane="best" departPos="random_free" departSpeed="max" arrivalPos="max" />
	<vehicle id="185_1.381" depart="25200.0" route="r6" type="CarDefault" departLane="best" departPos="random_free" departSpeed="max" arrivalPos="max" />
	<vehicle id="194_5.133" depart="25200.0" route="r7" type="CarDefault" departLane="best" departPos="random_free" departSpeed="max" arrivalPos="max" />
	<vehicle id="213_1.207" depart="25200.0" route="r8" type="CarDefault" departLane="best" departPos="random_free" departSpeed="max" arrivalPos="max" />
	<vehicle id="226_1.255" depart="25200.0" route="r9" type="CarDefault" departLane="best" departPos="random_free" departSpeed="max" arrivalPos="max" />
	<vehicle id="32_1.4" depart="25200.0" route="r10" type="CarDefault" departLane="best" departPos="random_free" departSpeed="max" arrivalPos="max" />
	<vehicle id="33_2.36" depart="25200.0" route="r11" type="CarDefault" departLane="best" departPos="random_free" departSpeed="max" arrivalPos="max" />
	<vehicle id="34_3.25" depart="25200.0" route="r12" type="CarDefault" departLane="best" departPos="random_free" departSpeed="max" arrivalPos="max" />
	<vehicle id="35_4.110" depart="25200.0" route="r13" type="CarDefault" departLane="best" departPos="random_free" departSpeed="max" arrivalPos="max" />
	<vehicle id="423_1.133" depart="25200.0" route="r14" type="CarDefault" departLane="best" departPos="random_free" departSpeed="max" arrivalPos="max" />
	<vehicle id="424_2.2" depart="25200.0" route="r15" type="CarDefault" departLane="best" departPos="random_free" departSpeed="max" arrivalPos="max" />
	<vehicle id="425_3.103" depart="25200.0" route="r16" type="CarDefault" departLane="best" departPos="random_free" departSpeed="max" arrivalPos="max" />
	<vehicle id="466_3.162" depart="25200.0" route="r17" type="CarDefault" departLane="best" departPos="random_free" departSpeed="max" arrivalPos="max" />
	<vehicle id="595_5.56" depart="25200.0" route="r18" type="CarDefault" departLane="best" departPos="random_free" departSpeed="max" arrivalPos="max" />
	<vehicle id="60_2.51" depart="25200.0" route="r19" type="CarDefault" departLane="best" departPos="random_free" departSpeed="max" arrivalPos="max" />
	<vehicle id="640_1.316" depart="25200.0" route="r20" type="CarDefault" departLane="best" departPos="random_free" departSpeed="max" arrivalPos="max" />
	<vehicle id="704_1.154" depart="25200.0" route="r21" type="CarDefault" departLane="best" departPos="random_free" departSpeed="max" arrivalPos="max" />
	<vehicle id="705_5.239" depart="25200.0" route="r22" type="CarDefault" departLane="best" departPos="random_free" departSpeed="max" arrivalPos="max" />
	<vehicle id="755_1.95" depart="25200.0" route="r23" type="CarDefault" departLane="best" departPos="random_free" departSpeed="max" arrivalPos="max" />
	<vehicle id="756_2.193" depart="25200.0" route="r24" type="CarDefault" departLane="best" departPos="random_free" departSpeed="max" arrivalPos="max" />
	<vehicle id="759_5.12" depart="25200.0" route="r25" type="CarDefault" departLane="best" departPos="random_free" departSpeed="max" arrivalPos="max" />
	<vehicle id="873_1.28" depart="25200.0" route="r26" type="CarDefault" departLane="best" departPos="random_free" departSpeed="max" arrivalPos="max" />
	<vehicle id="874_4.28" depart="25200.0" route="r27" type="CarDefault" departLane="best" departPos="random_free" departSpeed="max" arrivalPos="max" />
	<vehicle id="910_3.22" depart="25200.0" route="r28" type="CarDefault" departLane="best" departPos="random_free" departSpeed="max" arrivalPos="max" />
	<vehicle id="187_3.234" depart="25200.0" route="r29" type="CarDefault" departLane="best" departPos="random_free" departSpeed="max" arrivalPos="max" />
	<vehicle id="8_1.228" depart="25200.0" route="r30" type="CarDefault" departLane="best" departPos="random_free" departSpeed="max" arrivalPos="max" />
	<vehicle id="227_2.14" depart="25200.0" route="r31" type="CarDefault" departLane="best" departPos="random_free" departSpeed="max" arrivalPos="max" />
	<vehicle id="69_3.77" depart="25200.0" route="r32" type="CarDefault" departLane="best" departPos="random_free" departSpeed="max" arrivalPos="max" />
	<vehicle id="641_2.374" depart="25200.0" route="r33" type="CarDefault" departLane="best" departPos="random_free" departSpeed="max" arrivalPos="max" />
	<vehicle id="228_4.143" depart="25200.0" route="r34" type="CarDefault" departLane="best" departPos="random_free" departSpeed="max" arrivalPos="max" />
	<vehicle id="642_3.13" depart="25200.0" route="r35" type="CarDefault" departLane="best" departPos="random_free" departSpeed="max" arrivalPos="max" />
	<vehicle id="640_1.317" depart="25216.36" route="r36" type="CarDefault" departLane="best" departPos="random_free" departSpeed="max" arrivalPos="max" />
	<vehicle id="609_1.119" depart="25225.71" route="r37" type="CarDefault" departLane="best" departPos="random_free" departSpeed="max" arrivalPos="max" />
	<vehicle id="757_1.408" depart="25226.67" route="r38" type="CarDefault" departLane="best" departPos="random_free" departSpeed="max" arrivalPos="max" />
	<vehicle id="704_1.155" depart="25230.0" route="r39" type="CarDefault" departLane="best" departPos="random_free" departSpeed="max" arrivalPos="max" />
	<vehicle id="228_4.144" depart="25232.73" route="r40" type="CarDefault" departLane="best" departPos="random_free" departSpeed="max" arrivalPos="max" />
	<vehicle id="35_4.111" depart="25232.73" route="r41" type="CarDefault" departLane="best" departPos="random_free" departSpeed="max" arrivalPos="max" />
	<vehicle id="423_1.134" depart="25232.73" route="r42" type="CarDefault" departLane="best" departPos="random_free" departSpeed="max" arrivalPos="max" />
	<vehicle id="640_1.318" depart="25232.73" route="r43" type="CarDefault" departLane="best" departPos="random_free" departSpeed="max" arrivalPos="max" />
	<vehicle id="756_2.194" depart="25232.73" route="r44" type="CarDefault" departLane="best" departPos="random_free" departSpeed="max" arrivalPos="max" />
	<vehicle id="705_5.240" depart="25236.0" route="r45" type="CarDefault" departLane="best" departPos="random_free" departSpeed="max" arrivalPos="max" />
	<vehicle id="641_2.375" depart="25236.0" route="r49" type="CarDefault" departLane="best" departPos="random_free" departSpeed="max" arrivalPos="max" />
	<vehicle id="173_1.557" depart="25240.0" route="r46" type="CarDefault" departLane="best" departPos="random_free" departSpeed="max" arrivalPos="max" />
	<vehicle id="226_1.256" depart="25240.0" route="r47" type="CarDefault" departLane="best" departPos="random_free" departSpeed="max" arrivalPos="max" />
	<vehicle id="974_2.272" depart="25242.35" route="r48" type="CarDefault" departLane="best" departPos="random_free" departSpeed="max" arrivalPos="max" />
	<vehicle id="640_1.319" depart="25249.09" route="r50" type="CarDefault" departLane="best" departPos="random_free" departSpeed="max" arrivalPos="max" />
	<vehicle id="175_4.210" depart="25251.43" route="r51" type="CarDefault" departLane="best" departPos="random_free" departSpeed="max" arrivalPos="max" />
	<vehicle id="550_1.59" depart="25251.43" route="r52" type="CarDefault" departLane="best" departPos="random_free" departSpeed="max" arrivalPos="max" />
	<vehicle id="173_1.558" depart="25253.33" route="r53" type="CarDefault" departLane="best" departPos="random_free" departSpeed="max" arrivalPos="max" />
	<vehicle id="704_1.156" depart="25260.0" route="r54" type="CarDefault" departLane="best" departPos="random_free" departSpeed="max" arrivalPos="max" />
	<vehicle id="974_2.273" depart="25263.53" route="r55" type="CarDefault" departLane="best" departPos="random_free" departSpeed="max" arrivalPos="max" />
	<vehicle id="228_4.145" depart="25265.45" route="r56" type="CarDefault" departLane="best" departPos="random_free" departSpeed="max" arrivalPos="max" />
	<vehicle id="35_4.112" depart="25265.45" route="r57" type="CarDefault" departLane="best" departPos="random_free" departSpeed="max" arrivalPos="max" />
	<vehicle id="423_1.135" depart="25265.45" route="r58" type="CarDefault" departLane="best" departPos="random_free" departSpeed="max" arrivalPos="max" />
	<vehicle id="640_1.320" depart="25265.45" route="r59" type="CarDefault" departLane="best" departPos="random_free" departSpeed="max" arrivalPos="max" />
	<vehicle id="214_2.17" depart="25272.0" route="r60" type="CarDefault" departLane="best" departPos="random_free" departSpeed="max" arrivalPos="max" />
	<vehicle id="641_2.376" depart="25272.0" route="r61" type="CarDefault" departLane="best" departPos="random_free" departSpeed="max" arrivalPos="max" />
	<vehicle id="69_3.78" depart="25272.0" route="r62" type="CarDefault" departLane="best" departPos="random_free" departSpeed="max" arrivalPos="max" />
	<vehicle id="705_5.241" depart="25272.0" route="r63" type="CarDefault" departLane="best" departPos="random_free" departSpeed="max" arrivalPos="max" />
	<vehicle id="815_4.41" depart="25272.0" route="r64" type="CarDefault" departLane="best" departPos="random_free" departSpeed="max" arrivalPos="max" />
	<vehicle id="873_1.29" depart="25272.0" route="r65" type="CarDefault" departLane="best" departPos="random_free" departSpeed="max" arrivalPos="max" />
	<vehicle id="977_6.135" depart="25272.0" route="r66" type="CarDefault" departLane="best" departPos="random_free" departSpeed="max" arrivalPos="max" />
	<vehicle id="215_3.206" depart="25280.0" route="r67" type="CarDefault" departLane="best" departPos="random_free" departSpeed="max" arrivalPos="max" />
	<vehicle id="226_1.257" depart="25280.0" route="r68" type="CarDefault" departLane="best" departPos="random_free" departSpeed="max" arrivalPos="max" />
	<vehicle id="640_1.321" depart="25281.82" route="r69" type="CarDefault" departLane="best" departPos="random_free" departSpeed="max" arrivalPos="max" />
	<vehicle id="192_1.283" depart="25290.0" route="r70" type="CarDefault" departLane="best" departPos="random_free" departSpeed="max" arrivalPos="max" />
	<vehicle id="425_3.104" depart="25290.0" route="r71" type="CarDefault" departLane="best" departPos="random_free" departSpeed="max" arrivalPos="max" />
	<vehicle id="456_5.84" depart="25290.0" route="r72" type="CarDefault" departLane="best" departPos="random_free" departSpeed="max" arrivalPos="max" />
	<vehicle id="704_1.157" depart="25290.0" route="r73" type="CarDefault" departLane="best" departPos="random_free" departSpeed="max" arrivalPos="max" />
	<vehicle id="874_4.29" depart="25290.0" route="r74" type="CarDefault" departLane="best" departPos="random_free" departSpeed="max" arrivalPos="max" />
	<vehicle id="642_3.14" depart="25290.0" route="r76" type="CarDefault" departLane="best" departPos="random_free" departSpeed="max" arrivalPos="max" />
	<vehicle id="454_1.183" depart="25296.0" route="r75" type="CarDefault" departLane="best" departPos="random_free" departSpeed="max" arrivalPos="max" />
	<vehicle id="228_4.146" depart="25298.18" route="r77" type="CarDefault" departLane="best" departPos="random_free" departSpeed="max" arrivalPos="max" />
	<vehicle id="35_4.113" depart="25298.18" route="r78" type="CarDefault" departLane="best" departPos="random_free" departSpeed="max" arrivalPos="max" />
	<vehicle id="423_1.136" depart="25298.18" route="r14" type="CarDefault" departLane="best" departPos="random_free" departSpeed="max" arrivalPos="max" />
	<vehicle id="640_1.322" depart="25298.18" route="r79" type="CarDefault" departLane="best" departPos="random_free" departSpeed="max" arrivalPos="max" />
	<vehicle id="641_2.377" depart="25308.0" route="r80" type="CarDefault" departLane="best" departPos="random_free" departSpeed="max" arrivalPos="max" />
	<vehicle id="705_5.242" depart="25308.0" route="r81" type="CarDefault" departLane="best" departPos="random_free" departSpeed="max" arrivalPos="max" />
	<vehicle id="640_1.323" depart="25314.54" route="r82" type="CarDefault" departLane="best" departPos="random_free" departSpeed="max" arrivalPos="max" />
	<vehicle id="14_1.22" depart="25320.0" route="r83" type="CarDefault" departLane="best" departPos="random_free" departSpeed="max" arrivalPos="max" />
	<vehicle id="193_2.55" depart="25320.0" route="r84" type="CarDefault" departLane="best" departPos="random_free" departSpeed="max" arrivalPos="max" />
	<vehicle id="226_1.258" depart="25320.0" route="r56" type="CarDefault" departLane="best" departPos="random_free" departSpeed="max" arrivalPos="max" />
	<vehicle id="471_4.133" depart="25320.0" route="r85" type="CarDefault" departLane="best" departPos="random_free" departSpeed="max" arrivalPos="max" />
	<vehicle id="651_5.134" depart="25320.0" route="r86" type="CarDefault" departLane="best" departPos="random_free" departSpeed="max" arrivalPos="max" />
	<vehicle id="704_1.158" depart="25320.0" route="r73" type="CarDefault" departLane="best" departPos="random_free" departSpeed="max" arrivalPos="max" />
	<vehicle id="812_1.191" depart="25320.0" route="r87" type="CarDefault" departLane="best" departPos="random_free" departSpeed="max" arrivalPos="max" />
	<vehicle id="11_4.123" depart="25320.0" route="r88" type="CarDefault" departLane="best" departPos="random_free" departSpeed="max" arrivalPos="max" />
	<vehicle id="228_4.147" depart="25330.91" route="r47" type="CarDefault" departLane="best" departPos="random_free" departSpeed="max" arrivalPos="max" />
	<vehicle id="35_4.114" depart="25330.91" route="r57" type="CarDefault" departLane="best" departPos="random_free" departSpeed="max" arrivalPos="max" />
	<vehicle id="423_1.137" depart="25330.91" route="r89" type="CarDefault" departLane="best" departPos="random_free" departSpeed="max" arrivalPos="max" />
	<vehicle id="640_1.324" depart="25330.91" route="r90" type="CarDefault" departLane="best" departPos="random_free" departSpeed="max" arrivalPos="max" />
	<vehicle id="756_2.197" depart="25330.91" route="r92" type="CarDefault" departLane="best" departPos="random_free" departSpeed="max" arrivalPos="max" />
	<vehicle id="173_1.564" depart="25333.33" route="r91" type="CarDefault" departLane="best" departPos="random_free" departSpeed="max" arrivalPos="max" />
	<vehicle id="476_2.38" depart="25344.0" route="r93" type="CarDefault" departLane="best" departPos="random_free" departSpeed="max" arrivalPos="max" />
	<vehicle id="641_2.378" depart="25344.0" route="r50" type="CarDefault" departLane="best" departPos="random_free" departSpeed="max" arrivalPos="max" />
	<vehicle id="69_3.79" depart="25344.0" route="r94" type="CarDefault" departLane="best" departPos="random_free" departSpeed="max" arrivalPos="max" />
	<vehicle id="705_5.243" depart="25344.0" route="r95" type="CarDefault" departLane="best" departPos="random_free" departSpeed="max" arrivalPos="max" />
	<vehicle id="873_1.30" depart="25344.0" route="r96" type="CarDefault" departLane="best" departPos="random_free" departSpeed="max" arrivalPos="max" />
	<vehicle id="640_1.325" depart="25347.27" route="r97" type="CarDefault" departLane="best" departPos="random_free" departSpeed="max" arrivalPos="max" />
	<vehicle id="974_2.277" depart="25348.24" route="r98" type="CarDefault" departLane="best" departPos="random_free" departSpeed="max" arrivalPos="max" />
	<vehicle id="704_1.159" depart="25350.0" route="r99" type="CarDefault" departLane="best" departPos="random_free" departSpeed="max" arrivalPos="max" />
	<vehicle id="175_4.212" depart="25354.29" route="r100" type="CarDefault" departLane="best" departPos="random_free" departSpeed="max" arrivalPos="max" />
	<vehicle id="226_1.259" depart="25360.0" route="r101" type="CarDefault" departLane="best" departPos="random_free" departSpeed="max" arrivalPos="max" />
	<vehicle id="228_4.148" depart="25363.64" route="r102" type="CarDefault" departLane="best" departPos="random_free" departSpeed="max" arrivalPos="max" />
	<vehicle id="35_4.115" depart="25363.64" route="r103" type="CarDefault" departLane="best" departPos="random_free" departSpeed="max" arrivalPos="max" />
	<vehicle id="423_1.138" depart="25363.64" route="r104" type="CarDefault" departLane="best" departPos="random_free" departSpeed="max" arrivalPos="max" />
	<vehicle id="756_2.198" depart="25363.64" route="r105" type="CarDefault" departLane="best" departPos="random_free" departSpeed="max" arrivalPos="max" />
	<vehicle id="640_1.326" depart="25363.64" route="r106" type="CarDefault" departLane="best" departPos="random_free" departSpeed="max" arrivalPos="max" />
	<vehicle id="1343_2.14" depart="25380.0" route="r1" type="CarDefault" departLane="best" departPos="random_free" departSpeed="max" arrivalPos="max" />
	<vehicle id="1360_1.51" depart="25380.0" route="r107" type="CarDefault" departLane="best" departPos="random_free" departSpeed="max" arrivalPos="max" />
	<vehicle id="177_1.91" depart="25380.0" route="r108" type="CarDefault" departLane="best" departPos="random_free" departSpeed="max" arrivalPos="max" />
	<vehicle id="190_4.50" depart="25380.0" route="r109" type="CarDefault" departLane="best" departPos="random_free" departSpeed="max" arrivalPos="max" />
	<vehicle id="237_1.120" depart="25380.0" route="r110" type="CarDefault" departLane="best" departPos="random_free" departSpeed="max" arrivalPos="max" />
	<vehicle id="33_2.37" depart="25380.0" route="r111" type="CarDefault" departLane="best" departPos="random_free" departSpeed="max" arrivalPos="max" />
	<vehicle id="34_3.26" depart="25380.0" route="r112" type="CarDefault" departLane="best" departPos="random_free" departSpeed="max" arrivalPos="max" />
	<vehicle id="425_3.105" depart="25380.0" route="r113" type="CarDefault" departLane="best" departPos="random_free" departSpeed="max" arrivalPos="max" />
	<vehicle id="455_2.80" depart="25380.0" route="r114" type="CarDefault" departLane="best" departPos="random_free" departSpeed="max" arrivalPos="max" />
	<vehicle id="622_5.33" depart="25380.0" route="r115" type="CarDefault" departLane="best" departPos="random_free" departSpeed="max" arrivalPos="max" />
	<vehicle id="640_1.327" depart="25380.0" route="r116" type="CarDefault" departLane="best" departPos="random_free" departSpeed="max" arrivalPos="max" />
	<vehicle id="704_1.160" depart="25380.0" route="r117" type="CarDefault" departLane="best" departPos="random_free" departSpeed="max" arrivalPos="max" />
	<vehicle id="874_4.30" depart="25380.0" route="r118" type="CarDefault" departLane="best" departPos="random_free" departSpeed="max" arrivalPos="max" />
	<vehicle id="641_2.379" depart="25380.0" route="r119" type="CarDefault" departLane="best" departPos="random_free" departSpeed="max" arrivalPos="max" />
	<vehicle id="705_5.244" depart="25380.0" route="r120" type="CarDefault" departLane="best" departPos="random_free" departSpeed="max" arrivalPos="max" />
	<vehicle id="642_3.15" depart="25380.0" route="r121" type="CarDefault" departLane="best" departPos="random_free" departSpeed="max" arrivalPos="max" />
	<vehicle id="974_2.279" depart="25390.59" route="r122" type="CarDefault" departLane="best" departPos="random_free" departSpeed="max" arrivalPos="max" />
	<vehicle id="228_4.149" depart="25396.36" route="r123" type="CarDefault" departLane="best" departPos="random_free" departSpeed="max" arrivalPos="max" />
	<vehicle id="35_4.116" depart="25396.36" route="r124" type="CarDefault" departLane="best" departPos="random_free" departSpeed="max" arrivalPos="max" />
	<vehicle id="423_1.139" depart="25396.36" route="r125" type="CarDefault" departLane="best" departPos="random_free" departSpeed="max" arrivalPos="max" />
	<vehicle id="640_1.328" depart="25396.36" route="r126" type="CarDefault" departLane="best" departPos="random_free" departSpeed="max" arrivalPos="max" />
	<vehicle id="11_4.125" depart="25400.0" route="r127" type="CarDefault" departLane="best" departPos="random_free" departSpeed="max" arrivalPos="max" />
	<vehicle id="215_3.209" depart="25400.0" route="r128" type="CarDefault" departLane="best" departPos="random_free" departSpeed="max" arrivalPos="max" />
	<vehicle id="226_1.260" depart="25400.0" route="r129" type="CarDefault" departLane="best" departPos="random_free" departSpeed="max" arrivalPos="max" />
	<vehicle id="466_3.167" depart="25400.0" route="r130" type="CarDefault" departLane="best" departPos="random_free" departSpeed="max" arrivalPos="max" />
	<vehicle id="8_1.236" depart="25405.71" route="r131" type="CarDefault" departLane="best" departPos="random_free" departSpeed="max" arrivalPos="max" />
	<vehicle id="704_1.161" depart="25410.0" route="r132" type="CarDefault" departLane="best" departPos="random_free" departSpeed="max" arrivalPos="max" />
	<vehicle id="974_2.280" depart="25411.76" route="r133" type="CarDefault" departLane="best" departPos="random_free" departSpeed="max" arrivalPos="max" />
	<vehicle id="640_1.329" depart="25412.73" route="r134" type="CarDefault" departLane="best" departPos="random_free" departSpeed="max" arrivalPos="max" />
	<vehicle id="594_4.48" depart="25416.0" route="r135" type="CarDefault" departLane="best" departPos="random_free" departSpeed="max" arrivalPos="max" />
	<vehicle id="641_2.380" depart="25416.0" route="r79" type="CarDefault" departLane="best" departPos="random_free" departSpeed="max" arrivalPos="max" />
	<vehicle id="705_5.245" depart="25416.0" route="r136" type="CarDefault" departLane="best" departPos="random_free" departSpeed="max" arrivalPos="max" />
	<vehicle id="192_1.286" depart="25425.0" route="r137" type="CarDefault" departLane="best" departPos="random_free" departSpeed="max" arrivalPos="max" />
	<vehicle id="228_4.150" depart="25429.09" route="r138" type="CarDefault" departLane="best" departPos="random_free" departSpeed="max" arrivalPos="max" />
	<vehicle id="35_4.117" depart="25429.09" route="r139" type="CarDefault" departLane="best" departPos="random_free" departSpeed="max" arrivalPos="max" />
	<vehicle id="423_1.140" depart="25429.09" route="r140" type="CarDefault" departLane="best" departPos="random_free" departSpeed="max" arrivalPos="max" />
	<vehicle id="640_1.330" depart="25429.09" route="r141" type="CarDefault" departLane="best" departPos="random_free" departSpeed="max" arrivalPos="max" />
	<vehicle id="609_1.127" depart="25431.43" route="r142" type="CarDefault" departLane="best" departPos="random_free" departSpeed="max" arrivalPos="max" />
	<vehicle id="974_2.281" depart="25432.94" route="r143" type="CarDefault" departLane="best" departPos="random_free" departSpeed="max" arrivalPos="max" />
	<vehicle id="14_1.23" depart="25440.0" route="r144" type="CarDefault" departLane="best" departPos="random_free" departSpeed="max" arrivalPos="max" />
	<vehicle id="215_3.210" depart="25440.0" route="r145" type="CarDefault" departLane="best" departPos="random_free" departSpeed="max" arrivalPos="max" />
	<vehicle id="226_1.261" depart="25440.0" route="r146" type="CarDefault" departLane="best" departPos="random_free" departSpeed="max" arrivalPos="max" />
	<vehicle id="292_3.29" depart="25440.0" route="r147" type="CarDefault" departLane="best" departPos="random_free" departSpeed="max" arrivalPos="max" />
	<vehicle id="468_1.51" depart="25440.0" route="r148" type="CarDefault" departLane="best" departPos="random_free" departSpeed="max" arrivalPos="max" />
	<vehicle id="704_1.162" depart="25440.0" route="r149" type="CarDefault" departLane="best" departPos="random_free" departSpeed="max" arrivalPos="max" />
	<vehicle id="11_4.126" depart="25440.0" route="r150" type="CarDefault" departLane="best" departPos="random_free" departSpeed="max" arrivalPos="max" />
	<vehicle id="640_1.331" depart="25445.45" route="r151" type="CarDefault" departLane="best" departPos="random_free" departSpeed="max" arrivalPos="max" />
	<vehicle id="641_2.381" depart="25452.0" route="r152" type="CarDefault" departLane="best" departPos="random_free" departSpeed="max" arrivalPos="max" />
	<vehicle id="705_5.246" depart="25452.0" route="r136" type="CarDefault" departLane="best" departPos="random_free" departSpeed="max" arrivalPos="max" />
	<vehicle id="173_1.573" depart="25453.33" route="r153" type="CarDefault" departLane="best" departPos="random_free" departSpeed="max" arrivalPos="max" />
	<vehicle id="609_1.128" depart="25457.14" route="r154" type="CarDefault" departLane="best" departPos="random_free" departSpeed="max" arrivalPos="max" />
	<vehicle id="228_4.151" depart="25461.82" route="r155" type="CarDefault" departLane="best" departPos="random_free" departSpeed="max" arrivalPos="max" />
	<vehicle id="35_4.118" depart="25461.82" route="r156" type="CarDefault" departLane="best" departPos="random_free" departSpeed="max" arrivalPos="max" />
	<vehicle id="423_1.141" depart="25461.82" route="r157" type="CarDefault" departLane="best" departPos="random_free" departSpeed="max" arrivalPos="max" />
	<vehicle id="640_1.332" depart="25461.82" route="r158" type="CarDefault" departLane="best" departPos="random_free" departSpeed="max" arrivalPos="max" />
	<vehicle id="425_3.106" depart="25470.0" route="r159" type="CarDefault" departLane="best" departPos="random_free" departSpeed="max" arrivalPos="max" />
	<vehicle id="456_5.86" depart="25470.0" route="r75" type="CarDefault" departLane="best" departPos="random_free" departSpeed="max" arrivalPos="max" />
	<vehicle id="642_3.16" depart="25470.0" route="r160" type="CarDefault" departLane="best" departPos="random_free" departSpeed="max" arrivalPos="max" />
	<vehicle id="704_1.163" depart="25470.0" route="r161" type="CarDefault" departLane="best" departPos="random_free" departSpeed="max" arrivalPos="max" />
	<vehicle id="874_4.31" depart="25470.0" route="r162" type="CarDefault" departLane="best" departPos="random_free" departSpeed="max" arrivalPos="max" />
	<vehicle id="974_2.283" depart="25475.29" route="r163" type="CarDefault" departLane="best" departPos="random_free" departSpeed="max" arrivalPos="max" />
	<vehicle id="640_1.333" depart="25478.18" route="r160" type="CarDefault" departLane="best" departPos="random_free" departSpeed="max" arrivalPos="max" />
	<vehicle id="173_1.575" depart="25480.0" route="r164" type="CarDefault" departLane="best" departPos="random_free" departSpeed="max" arrivalPos="max" />
	<vehicle id="226_1.262" depart="25480.0" route="r165" type="CarDefault" departLane="best" departPos="random_free" departSpeed="max" arrivalPos="max" />
	<vehicle id="609_1.129" depart="25482.86" route="r166" type="CarDefault" departLane="best" departPos="random_free" departSpeed="max" arrivalPos="max" />
	<vehicle id="8_1.239" depart="25482.86" route="r167" type="CarDefault" departLane="best" departPos="random_free" departSpeed="max" arrivalPos="max" />
	<vehicle id="594_4.49" depart="25488.0" route="r168" type="CarDefault" departLane="best" departPos="random_free" departSpeed="max" arrivalPos="max" />
	<vehicle id="641_2.382" depart="25488.0" route="r169" type="CarDefault" departLane="best" departPos="random_free" departSpeed="max" arrivalPos="max" />
	<vehicle id="705_5.247" depart="25488.0" route="r170" type="CarDefault" departLane="best" departPos="random_free" departSpeed="max" arrivalPos="max" />
	<vehicle id="873_1.32" depart="25488.0" route="r171" type="CarDefault" departLane="best" departPos="random_free" departSpeed="max" arrivalPos="max" />
	<vehicle id="977_6.138" depart="25488.0" route="r172" type="CarDefault" departLane="best" departPos="random_free" departSpeed="max" arrivalPos="max" />
	<vehicle id="12_1.163" depart="25494.54" route="r173" type="CarDefault" departLane="best" departPos="random_free" departSpeed="max" arrivalPos="max" />
	<vehicle id="228_4.152" depart="25494.54" route="r174" type="CarDefault" departLane="best" departPos="random_free" departSpeed="max" arrivalPos="max" />
	<vehicle id="35_4.119" depart="25494.54" route="r175" type="CarDefault" departLane="best" departPos="random_free" departSpeed="max" arrivalPos="max" />
	<vehicle id="423_1.142" depart="25494.54" route="r176" type="CarDefault" departLane="best" departPos="random_free" departSpeed="max" arrivalPos="max" />
	<vehicle id="640_1.334" depart="25494.54" route="r177" type="CarDefault" departLane="best" departPos="random_free" departSpeed="max" arrivalPos="max" />
	<vehicle id="181_1.108" depart="25500.0" route="r178" type="CarDefault" departLane="best" departPos="random_free" departSpeed="max" arrivalPos="max" />
	<vehicle id="194_5.138" depart="25500.0" route="r179" type="CarDefault" departLane="best" departPos="random_free" departSpeed="max" arrivalPos="max" />
	<vehicle id="477_3.102" depart="25500.0" route="r180" type="CarDefault" departLane="best" departPos="random_free" departSpeed="max" arrivalPos="max" />
	<vehicle id="704_1.164" depart="25500.0" route="r181" type="CarDefault" departLane="best" departPos="random_free" departSpeed="max" arrivalPos="max" />
	<vehicle id="187_3.240" depart="25508.57" route="r182" type="CarDefault" departLane="best" departPos="random_free" departSpeed="max" arrivalPos="max" />
	<vehicle id="550_1.64" depart="25508.57" route="r183" type="CarDefault" departLane="best" departPos="random_free" departSpeed="max" arrivalPos="max" />