<?xml version='1.0' encoding='utf-8'?>
<additional>
	<edgeData id="0" file="edgedata_itsc_25200_32400_orange.out.xml" />
</additional>