<?xml version='1.0' encoding='utf-8'?>
<additional>
	<vType id="CarDefault" accel="3.0" decel="6.0" length="5.0" minGap="2.5" maxSpeed="50.0" sigma="0.5" />
	<vehicle id="1086_1.89" depart="25200.0" route="r0" type="CarDefault" departLane="best" departPos="random_free" departSpeed="max" arrivalPos="max" />
	<vehicle id="1088_3.248" depart="25200.0" route="r1" type="CarDefault" departLane="best" departPos="random_free" departSpeed="max" arrivalPos="max" />
	<vehicle id="108_3.102" depart="25200.0" route="r2" type="CarDefault" departLane="best" departPos="random_free" departSpeed="max" arrivalPos="max" />
	<vehicle id="109_5.312" depart="25200.0" route="r3" type="CarDefault" departLane="best" departPos="random_free" departSpeed="max" arrivalPos="max" />
	<vehicle id="110_6.114" depart="25200.0" route="r4" type="CarDefault" departLane="best" departPos="random_free" departSpeed="max" arrivalPos="max" />
	<vehicle id="111_2.62" depart="25200.0" route="r5" type="CarDefault" departLane="best" departPos="random_free" departSpeed="max" arrivalPos="max" />
	<vehicle id="112_3.73" depart="25200.0" route="r6" type="CarDefault" departLane="best" departPos="random_free" departSpeed="max" arrivalPos="max" />
	<vehicle id="113_4.388" depart="25200.0" route="r7" type="CarDefault" departLane="best" departPos="random_free" departSpeed="max" arrivalPos="max" />
	<vehicle id="114_1.29" depart="25200.0" route="r8" type="CarDefault" departLane="best" departPos="random_free" departSpeed="max" arrivalPos="max" />
	<vehicle id="115_2.94" depart="25200.0" route="r9" type="CarDefault" departLane="best" departPos="random_free" departSpeed="max" arrivalPos="max" />
	<vehicle id="1164_3.6" depart="25200.0" route="r10" type="CarDefault" departLane="best" departPos="random_free" departSpeed="max" arrivalPos="max" />
	<vehicle id="1165_4.7" depart="25200.0" route="r11" type="CarDefault" departLane="best" departPos="random_free" departSpeed="max" arrivalPos="max" />
	<vehicle id="116_4.264" depart="25200.0" route="r12" type="CarDefault" departLane="best" departPos="random_free" departSpeed="max" arrivalPos="max" />
	<vehicle id="1244_3.9" depart="25200.0" route="r13" type="CarDefault" departLane="best" departPos="random_free" departSpeed="max" arrivalPos="max" />
	<vehicle id="1278_3.455" depart="25200.0" route="r14" type="CarDefault" departLane="best" departPos="random_free" departSpeed="max" arrivalPos="max" />
	<vehicle id="1279_1.57" depart="25200.0" route="r15" type="CarDefault" departLane="best" departPos="random_free" departSpeed="max" arrivalPos="max" />
	<vehicle id="1289_10.207" depart="25200.0" route="r16" type="CarDefault" departLane="best" departPos="random_free" departSpeed="max" arrivalPos="max" />
	<vehicle id="154_1.96" depart="25200.0" route="r17" type="CarDefault" departLane="best" departPos="random_free" departSpeed="max" arrivalPos="max" />
	<vehicle id="156_4.91" depart="25200.0" route="r18" type="CarDefault" departLane="best" departPos="random_free" departSpeed="max" arrivalPos="max" />
	<vehicle id="157_1.140" depart="25200.0" route="r19" type="CarDefault" departLane="best" departPos="random_free" departSpeed="max" arrivalPos="max" />
	<vehicle id="158_2.143" depart="25200.0" route="r20" type="CarDefault" departLane="best" departPos="random_free" departSpeed="max" arrivalPos="max" />
	<vehicle id="181_1.103" depart="25200.0" route="r21" type="CarDefault" departLane="best" departPos="random_free" departSpeed="max" arrivalPos="max" />
	<vehicle id="184_4.22" depart="25200.0" route="r22" type="CarDefault" departLane="best" departPos="random_free" departSpeed="max" arrivalPos="max" />
	<vehicle id="264_2.8" depart="25200.0" route="r23" type="CarDefault" departLane="best" departPos="random_free" departSpeed="max" arrivalPos="max" />
	<vehicle id="27_3.20" depart="25200.0" route="r24" type="CarDefault" departLane="best" departPos="random_free" departSpeed="max" arrivalPos="max" />
	<vehicle id="28_4.16" depart="25200.0" route="r25" type="CarDefault" departLane="best" departPos="random_free" departSpeed="max" arrivalPos="max" />
	<vehicle id="29_1.9" depart="25200.0" route="r26" type="CarDefault" departLane="best" departPos="random_free" departSpeed="max" arrivalPos="max" />
	<vehicle id="358_1.24" depart="25200.0" route="r27" type="CarDefault" departLane="best" departPos="random_free" departSpeed="max" arrivalPos="max" />
	<vehicle id="360_4.21" depart="25200.0" route="r28" type="CarDefault" departLane="best" departPos="random_free" departSpeed="max" arrivalPos="max" />
	<vehicle id="361_5.26" depart="25200.0" route="r29" type="CarDefault" departLane="best" departPos="random_free" departSpeed="max" arrivalPos="max" />
	<vehicle id="445_4.25" depart="25200.0" route="r30" type="CarDefault" departLane="best" departPos="random_free" departSpeed="max" arrivalPos="max" />
	<vehicle id="500_1.189" depart="25200.0" route="r31" type="CarDefault" departLane="best" departPos="random_free" departSpeed="max" arrivalPos="max" />
	<vehicle id="501_2.80" depart="25200.0" route="r32" type="CarDefault" departLane="best" departPos="random_free" departSpeed="max" arrivalPos="max" />
	<vehicle id="503_5.140" depart="25200.0" route="r33" type="CarDefault" departLane="best" departPos="random_free" departSpeed="max" arrivalPos="max" />
	<vehicle id="523_9.22" depart="25200.0" route="r34" type="CarDefault" departLane="best" departPos="random_free" departSpeed="max" arrivalPos="max" />
	<vehicle id="541_6.134" depart="25200.0" route="r35" type="CarDefault" departLane="best" departPos="random_free" departSpeed="max" arrivalPos="max" />
	<vehicle id="543_1.55" depart="25200.0" route="r36" type="CarDefault" departLane="best" departPos="random_free" departSpeed="max" arrivalPos="max" />
	<vehicle id="544_4.47" depart="25200.0" route="r37" type="CarDefault" departLane="best" departPos="random_free" departSpeed="max" arrivalPos="max" />
	<vehicle id="616_3.96" depart="25200.0" route="r38" type="CarDefault" departLane="best" departPos="random_free" departSpeed="max" arrivalPos="max" />
	<vehicle id="617_4.36" depart="25200.0" route="r38" type="CarDefault" departLane="best" departPos="random_free" departSpeed="max" arrivalPos="max" />
	<vehicle id="627_1.314" depart="25200.0" route="r39" type="CarDefault" departLane="best" departPos="random_free" departSpeed="max" arrivalPos="max" />
	<vehicle id="632_1.7" depart="25200.0" route="r40" type="CarDefault" departLane="best" departPos="random_free" departSpeed="max" arrivalPos="max" />
	<vehicle id="636_2.120" depart="25200.0" route="r41" type="CarDefault" departLane="best" departPos="random_free" departSpeed="max" arrivalPos="max" />
	<vehicle id="646_1.189" depart="25200.0" route="r42" type="CarDefault" departLane="best" departPos="random_free" departSpeed="max" arrivalPos="max" />
	<vehicle id="647_3.143" depart="25200.0" route="r43" type="CarDefault" departLane="best" departPos="random_free" departSpeed="max" arrivalPos="max" />
	<vehicle id="648_6.135" depart="25200.0" route="r44" type="CarDefault" departLane="best" departPos="random_free" departSpeed="max" arrivalPos="max" />
	<vehicle id="65_1.68" depart="25200.0" route="r45" type="CarDefault" departLane="best" departPos="random_free" departSpeed="max" arrivalPos="max" />
	<vehicle id="670_2.645" depart="25200.0" route="r46" type="CarDefault" departLane="best" departPos="random_free" departSpeed="max" arrivalPos="max" />
	<vehicle id="672_7.80" depart="25200.0" route="r47" type="CarDefault" departLane="best" departPos="random_free" departSpeed="max" arrivalPos="max" />
	<vehicle id="694_3.20" depart="25200.0" route="r48" type="CarDefault" departLane="best" departPos="random_free" departSpeed="max" arrivalPos="max" />
	<vehicle id="695_1.441" depart="25200.0" route="r49" type="CarDefault" departLane="best" departPos="random_free" departSpeed="max" arrivalPos="max" />
	<vehicle id="696_3.169" depart="25200.0" route="r50" type="CarDefault" departLane="best" departPos="random_free" departSpeed="max" arrivalPos="max" />
	<vehicle id="697_4.72" depart="25200.0" route="r51" type="CarDefault" departLane="best" departPos="random_free" departSpeed="max" arrivalPos="max" />
	<vehicle id="707_2.189" depart="25200.0" route="r52" type="CarDefault" departLane="best" departPos="random_free" departSpeed="max" arrivalPos="max" />
	<vehicle id="70_1.18" depart="25200.0" route="r53" type="CarDefault" departLane="best" departPos="random_free" departSpeed="max" arrivalPos="max" />
	<vehicle id="718_3.74" depart="25200.0" route="r54" type="CarDefault" departLane="best" departPos="random_free" departSpeed="max" arrivalPos="max" />
	<vehicle id="71_3.5" depart="25200.0" route="r55" type="CarDefault" departLane="best" departPos="random_free" departSpeed="max" arrivalPos="max" />
	<vehicle id="72_5.56" depart="25200.0" route="r56" type="CarDefault" departLane="best" departPos="random_free" departSpeed="max" arrivalPos="max" />
	<vehicle id="73_6.7" depart="25200.0" route="r57" type="CarDefault" departLane="best" departPos="random_free" departSpeed="max" arrivalPos="max" />
	<vehicle id="757_1.406" depart="25200.0" route="r58" type="CarDefault" departLane="best" departPos="random_free" departSpeed="max" arrivalPos="max" />
	<vehicle id="760_6.154" depart="25200.0" route="r59" type="CarDefault" departLane="best" departPos="random_free" departSpeed="max" arrivalPos="max" />
	<vehicle id="763_1.45" depart="25200.0" route="r60" type="CarDefault" departLane="best" departPos="random_free" departSpeed="max" arrivalPos="max" />
	<vehicle id="764_2.70" depart="25200.0" route="r61" type="CarDefault" departLane="best" departPos="random_free" departSpeed="max" arrivalPos="max" />
	<vehicle id="765_3.38" depart="25200.0" route="r62" type="CarDefault" departLane="best" departPos="random_free" departSpeed="max" arrivalPos="max" />
	<vehicle id="766_1.214" depart="25200.0" route="r63" type="CarDefault" departLane="best" departPos="random_free" departSpeed="max" arrivalPos="max" />
	<vehicle id="767_2.177" depart="25200.0" route="r64" type="CarDefault" departLane="best" departPos="random_free" departSpeed="max" arrivalPos="max" />
	<vehicle id="768_3.19" depart="25200.0" route="r65" type="CarDefault" departLane="best" departPos="random_free" departSpeed="max" arrivalPos="max" />
	<vehicle id="771_4.112" depart="25200.0" route="r66" type="CarDefault" departLane="best" departPos="random_free" departSpeed="max" arrivalPos="max" />
	<vehicle id="772_1.90" depart="25200.0" route="r67" type="CarDefault" departLane="best" departPos="random_free" departSpeed="max" arrivalPos="max" />
	<vehicle id="773_2.54" depart="25200.0" route="r68" type="CarDefault" departLane="best" departPos="random_free" departSpeed="max" arrivalPos="max" />
	<vehicle id="774_5.181" depart="25200.0" route="r69" type="CarDefault" departLane="best" departPos="random_free" departSpeed="max" arrivalPos="max" />
	<vehicle id="776_5.138" depart="25200.0" route="r70" type="CarDefault" departLane="best" departPos="random_free" departSpeed="max" arrivalPos="max" />
	<vehicle id="80_1.230" depart="25200.0" route="r71" type="CarDefault" departLane="best" departPos="random_free" departSpeed="max" arrivalPos="max" />
	<vehicle id="812_1.189" depart="25200.0" route="r72" type="CarDefault" departLane="best" departPos="random_free" departSpeed="max" arrivalPos="max" />
	<vehicle id="82_5.272" depart="25200.0" route="r73" type="CarDefault" departLane="best" departPos="random_free" departSpeed="max" arrivalPos="max" />
	<vehicle id="83_6.23" depart="25200.0" route="r74" type="CarDefault" departLane="best" departPos="random_free" departSpeed="max" arrivalPos="max" />
	<vehicle id="840_1.98" depart="25200.0" route="r75" type="CarDefault" departLane="best" departPos="random_free" departSpeed="max" arrivalPos="max" />
	<vehicle id="850_3.72" depart="25200.0" route="r76" type="CarDefault" departLane="best" departPos="random_free" departSpeed="max" arrivalPos="max" />
	<vehicle id="954_3.0" depart="25200.0" route="r77" type="CarDefault" departLane="best" departPos="random_free" departSpeed="max" arrivalPos="max" />
	<vehicle id="956_2.89" depart="25200.0" route="r78" type="CarDefault" departLane="best" departPos="random_free" departSpeed="max" arrivalPos="max" />
	<vehicle id="957_4.2" depart="25200.0" route="r79" type="CarDefault" departLane="best" departPos="random_free" departSpeed="max" arrivalPos="max" />
	<vehicle id="986_3.72" depart="25200.0" route="r80" type="CarDefault" departLane="best" departPos="random_free" departSpeed="max" arrivalPos="max" />
	<vehicle id="18_2.7" depart="25200.0" route="r81" type="CarDefault" departLane="best" departPos="random_free" departSpeed="max" arrivalPos="max" />
	<vehicle id="637_3.191" depart="25200.0" route="r82" type="CarDefault" departLane="best" departPos="random_free" departSpeed="max" arrivalPos="max" />
	<vehicle id="643_1.203" depart="25200.0" route="r83" type="CarDefault" departLane="best" departPos="random_free" departSpeed="max" arrivalPos="max" />
	<vehicle id="117_5.127" depart="25200.0" route="r84" type="CarDefault" departLane="best" departPos="random_free" departSpeed="max" arrivalPos="max" />
	<vehicle id="249_2.195" depart="25200.0" route="r85" type="CarDefault" departLane="best" departPos="random_free" departSpeed="max" arrivalPos="max" />
	<vehicle id="644_2.188" depart="25200.0" route="r86" type="CarDefault" departLane="best" departPos="random_free" departSpeed="max" arrivalPos="max" />
	<vehicle id="633_2.35" depart="25200.0" route="r87" type="CarDefault" departLane="best" departPos="random_free" departSpeed="max" arrivalPos="max" />
	<vehicle id="638_6.188" depart="25200.0" route="r88" type="CarDefault" departLane="best" departPos="random_free" departSpeed="max" arrivalPos="max" />
	<vehicle id="630_7.320" depart="25200.0" route="r89" type="CarDefault" departLane="best" departPos="random_free" departSpeed="max" arrivalPos="max" />
	<vehicle id="639_7.49" depart="25200.0" route="r90" type="CarDefault" departLane="best" departPos="random_free" departSpeed="max" arrivalPos="max" />
	<vehicle id="645_5.434" depart="25200.0" route="r91" type="CarDefault" departLane="best" departPos="random_free" departSpeed="max" arrivalPos="max" />
	<vehicle id="118_6.66" depart="25200.0" route="r92" type="CarDefault" departLane="best" departPos="random_free" departSpeed="max" arrivalPos="max" />
	<vehicle id="634_3.23" depart="25200.0" route="r93" type="CarDefault" departLane="best" departPos="random_free" departSpeed="max" arrivalPos="max" />
	<vehicle id="635_4.15" depart="25200.0" route="r94" type="CarDefault" departLane="best" departPos="random_free" departSpeed="max" arrivalPos="max" />
	<vehicle id="1276_4.37" depart="25200.0" route="r95" type="CarDefault" departLane="best" departPos="random_free" departSpeed="max" arrivalPos="max" />
	<vehicle id="434_5.8" depart="25200.0" route="r96" type="CarDefault" departLane="best" departPos="random_free" departSpeed="max" arrivalPos="max" />
	<vehicle id="458_1.18" depart="25200.0" route="r191" type="CarDefault" departLane="best" departPos="random_free" departSpeed="max" arrivalPos="max" />
	<vehicle id="459_2.167" depart="25200.0" route="r193" type="CarDefault" departLane="best" departPos="random_free" departSpeed="max" arrivalPos="max" />
	<vehicle id="401_2.54" depart="25200.0" route="r357" type="CarDefault" departLane="best" departPos="random_free" departSpeed="max" arrivalPos="max" />
	<vehicle id="402_3.160" depart="25200.0" route="r358" type="CarDefault" departLane="best" departPos="random_free" departSpeed="max" arrivalPos="max" />
	<vehicle id="462_7.71" depart="25200.0" route="r792" type="CarDefault" departLane="best" departPos="random_free" departSpeed="max" arrivalPos="max" />
	<vehicle id="113_4.389" depart="25222.5" route="r99" type="CarDefault" departLane="best" departPos="random_free" departSpeed="max" arrivalPos="max" />
	<vehicle id="670_2.646" depart="25222.5" route="r100" type="CarDefault" departLane="best" departPos="random_free" departSpeed="max" arrivalPos="max" />
	<vehicle id="82_5.273" depart="25224.0" route="r101" type="CarDefault" departLane="best" departPos="random_free" departSpeed="max" arrivalPos="max" />
	<vehicle id="647_3.144" depart="25225.71" route="r102" type="CarDefault" departLane="best" departPos="random_free" departSpeed="max" arrivalPos="max" />
	<vehicle id="109_5.313" depart="25227.69" route="r103" type="CarDefault" departLane="best" departPos="random_free" departSpeed="max" arrivalPos="max" />
	<vehicle id="1278_3.456" depart="25227.69" route="r104" type="CarDefault" departLane="best" departPos="random_free" departSpeed="max" arrivalPos="max" />
	<vehicle id="637_3.192" depart="25227.69" route="r105" type="CarDefault" departLane="best" departPos="random_free" departSpeed="max" arrivalPos="max" />
	<vehicle id="766_1.215" depart="25227.69" route="r106" type="CarDefault" departLane="best" departPos="random_free" departSpeed="max" arrivalPos="max" />
	<vehicle id="169_1.164" depart="25230.0" route="r107" type="CarDefault" departLane="best" departPos="random_free" departSpeed="max" arrivalPos="max" />
	<vehicle id="774_5.182" depart="25232.73" route="r108" type="CarDefault" departLane="best" departPos="random_free" departSpeed="max" arrivalPos="max" />
	<vehicle id="251_5.121" depart="25236.0" route="r109" type="CarDefault" departLane="best" departPos="random_free" departSpeed="max" arrivalPos="max" />
	<vehicle id="500_1.190" depart="25236.0" route="r110" type="CarDefault" departLane="best" departPos="random_free" departSpeed="max" arrivalPos="max" />
	<vehicle id="630_7.321" depart="25236.0" route="r111" type="CarDefault" departLane="best" departPos="random_free" departSpeed="max" arrivalPos="max" />
	<vehicle id="956_2.90" depart="25236.0" route="r112" type="CarDefault" departLane="best" departPos="random_free" departSpeed="max" arrivalPos="max" />
	<vehicle id="459_2.168" depart="25236.0" route="r194" type="CarDefault" departLane="best" departPos="random_free" departSpeed="max" arrivalPos="max" />
	<vehicle id="110_6.115" depart="25240.0" route="r113" type="CarDefault" departLane="best" departPos="random_free" departSpeed="max" arrivalPos="max" />
	<vehicle id="567_2.19" depart="25240.0" route="r114" type="CarDefault" departLane="best" departPos="random_free" departSpeed="max" arrivalPos="max" />
	<vehicle id="707_2.190" depart="25240.0" route="r115" type="CarDefault" departLane="best" departPos="random_free" departSpeed="max" arrivalPos="max" />
	<vehicle id="757_1.409" depart="25240.0" route="r116" type="CarDefault" departLane="best" departPos="random_free" departSpeed="max" arrivalPos="max" />
	<vehicle id="776_5.139" depart="25240.0" route="r117" type="CarDefault" departLane="best" departPos="random_free" departSpeed="max" arrivalPos="max" />
	<vehicle id="113_4.390" depart="25245.0" route="r118" type="CarDefault" departLane="best" departPos="random_free" departSpeed="max" arrivalPos="max" />
	<vehicle id="171_3.182" depart="25245.0" route="r119" type="CarDefault" departLane="best" departPos="random_free" departSpeed="max" arrivalPos="max" />
	<vehicle id="503_5.141" depart="25245.0" route="r120" type="CarDefault" departLane="best" departPos="random_free" departSpeed="max" arrivalPos="max" />
	<vehicle id="627_1.315" depart="25245.0" route="r121" type="CarDefault" departLane="best" departPos="random_free" departSpeed="max" arrivalPos="max" />
	<vehicle id="645_5.435" depart="25245.0" route="r122" type="CarDefault" departLane="best" departPos="random_free" departSpeed="max" arrivalPos="max" />
	<vehicle id="670_2.647" depart="25245.0" route="r123" type="CarDefault" departLane="best" departPos="random_free" departSpeed="max" arrivalPos="max" />
	<vehicle id="82_5.274" depart="25248.0" route="r124" type="CarDefault" departLane="best" departPos="random_free" departSpeed="max" arrivalPos="max" />
	<vehicle id="115_2.95" depart="25251.43" route="r125" type="CarDefault" departLane="best" departPos="random_free" departSpeed="max" arrivalPos="max" />
	<vehicle id="314_6.96" depart="25251.43" route="r126" type="CarDefault" departLane="best" departPos="random_free" departSpeed="max" arrivalPos="max" />
	<vehicle id="501_2.81" depart="25251.43" route="r127" type="CarDefault" departLane="best" departPos="random_free" departSpeed="max" arrivalPos="max" />
	<vehicle id="609_1.120" depart="25251.43" route="r128" type="CarDefault" departLane="best" departPos="random_free" departSpeed="max" arrivalPos="max" />
	<vehicle id="616_3.97" depart="25251.43" route="r129" type="CarDefault" departLane="best" departPos="random_free" departSpeed="max" arrivalPos="max" />
	<vehicle id="647_3.145" depart="25251.43" route="r130" type="CarDefault" departLane="best" departPos="random_free" departSpeed="max" arrivalPos="max" />
	<vehicle id="695_1.442" depart="25251.43" route="r131" type="CarDefault" departLane="best" departPos="random_free" departSpeed="max" arrivalPos="max" />
	<vehicle id="755_1.96" depart="25251.43" route="r132" type="CarDefault" departLane="best" departPos="random_free" departSpeed="max" arrivalPos="max" />
	<vehicle id="402_3.161" depart="25251.43" route="r359" type="CarDefault" departLane="best" departPos="random_free" departSpeed="max" arrivalPos="max" />
	<vehicle id="109_5.314" depart="25255.38" route="r133" type="CarDefault" departLane="best" departPos="random_free" departSpeed="max" arrivalPos="max" />
	<vehicle id="637_3.193" depart="25255.38" route="r134" type="CarDefault" departLane="best" departPos="random_free" departSpeed="max" arrivalPos="max" />
	<vehicle id="766_1.216" depart="25255.38" route="r135" type="CarDefault" departLane="best" departPos="random_free" departSpeed="max" arrivalPos="max" />
	<vehicle id="1396_1.65" depart="25260.0" route="r136" type="CarDefault" departLane="best" departPos="random_free" departSpeed="max" arrivalPos="max" />
	<vehicle id="638_6.189" depart="25260.0" route="r137" type="CarDefault" departLane="best" departPos="random_free" departSpeed="max" arrivalPos="max" />
	<vehicle id="771_4.113" depart="25260.0" route="r138" type="CarDefault" departLane="best" departPos="random_free" departSpeed="max" arrivalPos="max" />
	<vehicle id="772_1.91" depart="25260.0" route="r139" type="CarDefault" departLane="best" departPos="random_free" departSpeed="max" arrivalPos="max" />
	<vehicle id="80_1.231" depart="25260.0" route="r140" type="CarDefault" departLane="best" departPos="random_free" departSpeed="max" arrivalPos="max" />
	<vehicle id="1289_10.209" depart="25265.45" route="r141" type="CarDefault" departLane="best" departPos="random_free" departSpeed="max" arrivalPos="max" />
	<vehicle id="774_5.183" depart="25265.45" route="r142" type="CarDefault" departLane="best" departPos="random_free" departSpeed="max" arrivalPos="max" />
	<vehicle id="113_4.391" depart="25267.5" route="r143" type="CarDefault" departLane="best" departPos="random_free" departSpeed="max" arrivalPos="max" />
	<vehicle id="670_2.648" depart="25267.5" route="r144" type="CarDefault" departLane="best" departPos="random_free" departSpeed="max" arrivalPos="max" />
	<vehicle id="116_4.265" depart="25272.0" route="r145" type="CarDefault" departLane="best" departPos="random_free" departSpeed="max" arrivalPos="max" />
	<vehicle id="170_2.51" depart="25272.0" route="r146" type="CarDefault" departLane="best" departPos="random_free" departSpeed="max" arrivalPos="max" />
	<vehicle id="249_2.196" depart="25272.0" route="r147" type="CarDefault" departLane="best" departPos="random_free" departSpeed="max" arrivalPos="max" />
	<vehicle id="500_1.191" depart="25272.0" route="r148" type="CarDefault" departLane="best" departPos="random_free" departSpeed="max" arrivalPos="max" />
	<vehicle id="630_7.322" depart="25272.0" route="r149" type="CarDefault" departLane="best" departPos="random_free" departSpeed="max" arrivalPos="max" />
	<vehicle id="636_2.121" depart="25272.0" route="r150" type="CarDefault" departLane="best" departPos="random_free" departSpeed="max" arrivalPos="max" />
	<vehicle id="643_1.204" depart="25272.0" route="r151" type="CarDefault" departLane="best" departPos="random_free" departSpeed="max" arrivalPos="max" />
	<vehicle id="644_2.189" depart="25272.0" route="r152" type="CarDefault" departLane="best" departPos="random_free" departSpeed="max" arrivalPos="max" />
	<vehicle id="764_2.71" depart="25272.0" route="r153" type="CarDefault" departLane="best" departPos="random_free" departSpeed="max" arrivalPos="max" />
	<vehicle id="953_2.7" depart="25272.0" route="r154" type="CarDefault" departLane="best" departPos="random_free" departSpeed="max" arrivalPos="max" />
	<vehicle id="251_5.122" depart="25272.0" route="r155" type="CarDefault" departLane="best" departPos="random_free" departSpeed="max" arrivalPos="max" />
	<vehicle id="82_5.275" depart="25272.0" route="r156" type="CarDefault" departLane="best" departPos="random_free" departSpeed="max" arrivalPos="max" />
	<vehicle id="459_2.169" depart="25272.0" route="r198" type="CarDefault" departLane="best" departPos="random_free" departSpeed="max" arrivalPos="max" />
	<vehicle id="647_3.146" depart="25277.14" route="r157" type="CarDefault" departLane="best" departPos="random_free" departSpeed="max" arrivalPos="max" />
	<vehicle id="110_6.116" depart="25280.0" route="r158" type="CarDefault" departLane="best" departPos="random_free" departSpeed="max" arrivalPos="max" />
	<vehicle id="356_1.1069" depart="25280.0" route="r159" type="CarDefault" departLane="best" departPos="random_free" departSpeed="max" arrivalPos="max" />
	<vehicle id="707_2.191" depart="25280.0" route="r160" type="CarDefault" departLane="best" departPos="random_free" departSpeed="max" arrivalPos="max" />
	<vehicle id="920_1.141" depart="25280.0" route="r161" type="CarDefault" departLane="best" departPos="random_free" departSpeed="max" arrivalPos="max" />
	<vehicle id="109_5.315" depart="25283.08" route="r162" type="CarDefault" departLane="best" departPos="random_free" departSpeed="max" arrivalPos="max" />
	<vehicle id="637_3.194" depart="25283.08" route="r163" type="CarDefault" departLane="best" departPos="random_free" departSpeed="max" arrivalPos="max" />
	<vehicle id="766_1.217" depart="25283.08" route="r164" type="CarDefault" departLane="best" departPos="random_free" departSpeed="max" arrivalPos="max" />
	<vehicle id="104_2.79" depart="25290.0" route="r165" type="CarDefault" departLane="best" departPos="random_free" departSpeed="max" arrivalPos="max" />
	<vehicle id="1088_3.249" depart="25290.0" route="r166" type="CarDefault" departLane="best" departPos="random_free" departSpeed="max" arrivalPos="max" />
	<vehicle id="112_3.74" depart="25290.0" route="r167" type="CarDefault" departLane="best" departPos="random_free" departSpeed="max" arrivalPos="max" />
	<vehicle id="113_4.392" depart="25290.0" route="r168" type="CarDefault" departLane="best" departPos="random_free" departSpeed="max" arrivalPos="max" />
	<vehicle id="118_6.67" depart="25290.0" route="r169" type="CarDefault" departLane="best" departPos="random_free" departSpeed="max" arrivalPos="max" />
	<vehicle id="240_2.31" depart="25290.0" route="r170" type="CarDefault" departLane="best" departPos="random_free" departSpeed="max" arrivalPos="max" />
	<vehicle id="243_6.34" depart="25290.0" route="r171" type="CarDefault" departLane="best" departPos="random_free" departSpeed="max" arrivalPos="max" />
	<vehicle id="503_5.142" depart="25290.0" route="r172" type="CarDefault" departLane="best" departPos="random_free" departSpeed="max" arrivalPos="max" />
	<vehicle id="543_1.56" depart="25290.0" route="r173" type="CarDefault" departLane="best" departPos="random_free" departSpeed="max" arrivalPos="max" />
	<vehicle id="544_4.48" depart="25290.0" route="r174" type="CarDefault" departLane="best" departPos="random_free" departSpeed="max" arrivalPos="max" />
	<vehicle id="569_5.27" depart="25290.0" route="r175" type="CarDefault" departLane="best" departPos="random_free" departSpeed="max" arrivalPos="max" />
	<vehicle id="627_1.316" depart="25290.0" route="r176" type="CarDefault" departLane="best" departPos="random_free" departSpeed="max" arrivalPos="max" />
	<vehicle id="645_5.436" depart="25290.0" route="r177" type="CarDefault" departLane="best" departPos="random_free" departSpeed="max" arrivalPos="max" />
	<vehicle id="646_1.190" depart="25290.0" route="r43" type="CarDefault" departLane="best" departPos="random_free" departSpeed="max" arrivalPos="max" />
	<vehicle id="696_3.170" depart="25290.0" route="r178" type="CarDefault" departLane="best" departPos="random_free" departSpeed="max" arrivalPos="max" />
	<vehicle id="765_3.39" depart="25290.0" route="r179" type="CarDefault" departLane="best" departPos="random_free" departSpeed="max" arrivalPos="max" />
	<vehicle id="767_2.178" depart="25290.0" route="r180" type="CarDefault" departLane="best" departPos="random_free" departSpeed="max" arrivalPos="max" />
	<vehicle id="773_2.55" depart="25290.0" route="r181" type="CarDefault" departLane="best" departPos="random_free" departSpeed="max" arrivalPos="max" />
	<vehicle id="850_3.73" depart="25290.0" route="r182" type="CarDefault" departLane="best" departPos="random_free" departSpeed="max" arrivalPos="max" />
	<vehicle id="462_7.72" depart="25290.0" route="r644" type="CarDefault" departLane="best" departPos="random_free" departSpeed="max" arrivalPos="max" />
	<vehicle id="757_1.413" depart="25293.33" route="r184" type="CarDefault" departLane="best" departPos="random_free" departSpeed="max" arrivalPos="max" />
	<vehicle id="82_5.276" depart="25296.0" route="r187" type="CarDefault" departLane="best" departPos="random_free" departSpeed="max" arrivalPos="max" />
	<vehicle id="263_1.124" depart="25298.18" route="r189" type="CarDefault" departLane="best" departPos="random_free" departSpeed="max" arrivalPos="max" />
	<vehicle id="774_5.184" depart="25298.18" route="r190" type="CarDefault" departLane="best" departPos="random_free" departSpeed="max" arrivalPos="max" />