<?xml version='1.0' encoding='utf-8'?>
<routes>
	<route id="r0" edges="554991019 5826896#0 5826896#1 4919459#0 8080825 128944693#1 -317003249#1 -369564011#1 -5826896#0 -554991019 -532427444#7 -532427444#6 -532427444#3 -532427444#2 -341583777#1 -5976022 gneE49 532427445#0 48454248#0 -14039718#5 22962975#1 48455139#0 48455139#3 48455139#4 78060945 48455136#1 -125880830#7 -125880830#6 -125880830#4 -13866325#6 -13866325#2 -13866325#1 25638749#0" />
	<route id="r1" edges="554991019 5826896#0 5826896#1 4919459#0 8080825 128944693#1 -317003249#1 -369564011#1 -5826896#0 -554991019 -532427444#7 -532427444#6 -532427444#3 -532427444#2 -341583777#1 -5976022 gneE49 532427445#0 48454248#0 14039718#0 30221015#0 240027181#0 240027181#1 450023077#0 450023077#1 302527226#0 302527226#1 228818596#0 228818596#2 129211813#0" />
	<route id="r2" edges="4290616#1 127546529#0 129211789#0 129211789#1 49998962#0 -227767347#0 361585261#0 143866293#0 143866305#0 143866305#1 -372460213#8 -372460213#6 -372460213#1 -56681847#4 -52881220#3 -52881220#1 -52881219#6 -52881218#4 129774677#0 401904746#0 401904746#2 401904747 -190792171#5 -4571527#7 -4571527#3 -4571527#0 -33078543 4934662#0 30655095#0 30655096" />
	<route id="r3" edges="4290616#1 127546529#0 129211789#0 129211789#1 49998962#0 -227767347#0 361585261#0 143866293#0 143866305#0 143866305#1 384312815 129211799#2 372226866 372226870#0 372226870#2 510208230#1 -128571079#1 -20848447#3 -20848447#0 20848446#1 20848446#3 -25761610#4" />
	<route id="r4" edges="4290616#1 127546529#0 129211789#0 129211789#1 49998962#0 -227767347#0 361585261#0 143866293#0 143866305#0 143866311#0 23395388#0 23395388#2 23395388#3 25683461" />
	<route id="r5" edges="3789571#0 3789571#1 3789571#2 3789571#3 3789571#4 3708838#1 360313819#0 360313819#2 360313819#3 360313819#4 3716924 14327271 14327272#0 14327272#2 430591268#0 430591268#2 430591268#3 129211824 317219094#0 317219094#1 362985327#0 362985327#3 20848430#0 20848430#1 -31982229#1 129211834#1" />
	<route id="r6" edges="3789571#0 3789571#1 3789571#2 3789571#3 3789571#4 3708838#1 360313819#0 360313819#2 360313819#3 360313819#4 3716924 14327271 14327272#0 14327272#2 430591268#0 430591268#2 430591268#3 129211824 317219094#0 129211847#0 -137667338#3 -137667338#1 372460212#2 372460212#3 385558485#0 385558485#1 20848446#1 20848446#3 317219087 54451008#0 -31008101" />
	<route id="r7" edges="3789571#0 -3789251#5 13871260 -372256216#4 -372256216#3 -372256216#2 -372256216#0 -372256221 -6273612#5 35060881 33969753#2 23086918#0 23086918#1 372245388#0 372245388#1 gneE29 37865098#0 37865098#2 -16247623 4919464 60010826#0 60010826#3 143278854#0 360313823#0 23050596 23050597" />
	<route id="r8" edges="gneE22 4408238#0 4408238#2 12854626#0 12854626#3 gneE29 37865098#0 37865098#2 -16247623 4919464 60010826#0 60010826#3 143278854#0 360313823#0 360313823#1 369652829#0 369652829#4 gneE59 -43870791#1 43321720#0 -237581109#1" />
	<route id="r9" edges="gneE22 4408238#0 4408238#2 12854626#0 12854626#3 gneE29 37865098#0 37865098#2 -16247623 4919464 60010826#0 60010826#3 143278854#0 360313823#0 360313823#1 369652829#0 369652829#4 gneE59 125886704 125886705#0 22962975#1 22962975#2 22962975#3 13866268#0 -8384431#3 -8384431#1" />
	<route id="r10" edges="-15464769#0 4919535#1 24349650 -532427444#7 -532427444#6 -532427444#3 -532427444#2 -341583777#1 -5976022 gneE49 532427445#0 48454248#0 14039718#0 30221015#0 240027181#0 240027181#1 450023077#0 450023077#1 302527228#0 302527228#1 128569358#0 369988981#1 -43034941#0 gneE72 -128571079#1 -20848447#3 -20848447#0 -317101094#13 -317101094#12 -317101094#11 -317101094#9 -317101094#6 -317101094#2 -426154661#6 -60067101 -60067109 60067118#1" />
	<route id="r11" edges="-15464769#0 4919535#1 24349650 16309917#0 16309917#2 -6192247#2 23045804#0 360313823#0 360313823#1 369652829#0 23045780#0 23045780#2 23045781" />
	<route id="r12" edges="gneE22 4408238#0 4408238#2 12854626#0 12854626#3 gneE29 37865098#0 37865098#2 -16247623 4919464 60010826#0 60010826#3 143278854#0 360313823#0 360313823#1 369652829#0 369652829#4 gneE59 125886704 125886705#0 22962975#1 48455139#0 48455139#3 48455139#4 78060945 48455136#1 -125880830#7" />
	<route id="r13" edges="-636824322#1 64270035#0 -64270035#1 636824322#1 474590054 432565295#0 432565295#3 432565295#5 432565295#7 585819382 -372256216#7 -372256216#6 -372256216#4 -372256216#3 -372256216#2 -372256216#0 -372256221 -6273612#5 35060881 33969753#2 23086918#0 23086918#1 372245388#0 372245388#1 gneE29 37865098#0 37865098#2 -16247623 4919464 60010826#0 60010826#3 143278854#0 360313823#0 360313823#1" />
	<route id="r14" edges="38587823 37721990 128450677#0 128450676#0 128450676#3 14327272#0 430591274#1 369359214 128570949#0 5976030 gneE22 4408238#0 4408238#2 12854626#0 12854626#3 3791905#0 3791905#1 3791905#2 3790724 25094727#0 25094727#2 585508291#0 4401701#0 4401701#1 3788065#0 3788065#1 70410612#1 285487940 229727179 3789703#0 41851537#0" />
	<route id="r15" edges="-3708465#1 -14331347 37721990 128450677#0 128450676#0 128450676#3 14327272#0 14327272#2 430591268#0 430591268#2 430591268#3 129211824 317219094#0 317219094#1 362985327#0 362985327#3 376465157#0 362985328#1 9189208#0 9189208#1 9189208#2 25536089#0 32015770" />
	<route id="r16" edges="81310506#0 23347664#0 -23347664#1 -81310506#5 52881218#0 52881219#1 52881220#0 52881220#2 56681847#1 372460213#0 372460213#3 372460213#7 20848454#0 133909794#0 129211785#2 227767347#0 227767347#1 5976030 gneE22 3789252#1 3789252#3 401912432#2 372256216#0 372256216#1 372256216#3 372256216#4 372256216#6 372256216#7 3789571#0 3789571#1 3789571#2 3789571#3 3789571#4 3708838#1 4908199#0 4908199#2 52822147#0 52822147#2 125814598 -334138114#9 -334138114#7 -7989950#2 -39178107#1 -39178107#0 -39178091#1 -39178310" />
	<route id="r17" edges="37865098#2 -16247623 4919464 60010826#0 60010826#3 143278854#0 6192171#0 52375081#0 10564223#0 68748484#0 360313821 375778083 375778088#0 143866305#0 143866305#1 -372460213#8 -372460213#6 -372460213#1 -56681847#4 -52881220#3 -52881220#1 -52881219#6 -52881218#4 129774677#0 401904746#0 401904746#2 401904747 32491858#0 32491858#2 228731434 228731431#2" />
	<route id="r18" edges="37865098#2 -16247623 4919464 60010826#0 60010826#3 143278854#0 6192171#0 52375081#0 10564223#0 68748484#0 360313821 375778083 375778088#0 143866305#0 143866305#1 384312815 129211799#2 372226866 372226870#0 372226870#2 510208230#1 -128571079#1 -20848447#3 -20848447#0 -317101094#13 -317101094#12 -317101094#11 129211830#0 129211855 -129211831 -54451007#6 -54451007#5 -54451007#4" />
	<route id="r19" edges="3791745#0 3791745#4 4919462#0 128944693#0 128944693#1 317003249#2 -668344588 -43538577#3 -43538577#1 -16247623 4919464 60010826#0 60010826#3 143278854#0 6192171#0 52375081#0 10564223#0 68748484#0 360313821 375778083 375778088#0 143866305#0 143866305#1 384312815 129211799#2 52375071 -52375073#1" />
	<route id="r20" edges="-3791745#3 -317003249#2 -317003249#1 -369564011#1 -5826896#0 -554991019 -532427444#7 -532427444#6 -532427444#3 -532427444#2 -341583777#1 -5976022 gneE49 532427445#0 48454248#0 14039718#0 30221015#0 240027181#0 240027181#1 450023077#0 450023077#1 -129211823#2 -129211823#0 -317544588#3 -317544588#1 -369988978#5 -369988978#3 -369988978#2 -129211806#4 -129211806#3 -25536468 -31008788" />
	<route id="r21" edges="4395891#0 37692306 150800558#0 -4396161#1 -360319695#2 -4396159#3 -4396159#2 -317027067 35078321#0 35078320 33921278#0 33921278#1 244844370#2 229061149 404268319 372245388#0 372245388#1 gneE29 125863788 292236197 13907388 3789575#0 -5976030 -128570949#1 -369359214 -430591274#4 56681848#1 52375077" />
	<route id="r22" edges="4395891#0 37692306 150800558#0 -4396161#1 -360319695#2 -4396159#3 -4396159#2 -317027067 35078321#0 35078320 33921278#0 33921278#1 244844370#2 229061149 404268319 372245388#0 372245388#1 gneE29 125863788 292236197 13907388 3789575#0 -5976030 -227767347#1 -227767347#0 361585261#0 143866293#0 143866305#0 143866305#1 384312815" />
	<route id="r23" edges="125880830#9 -22962975#6 -22962975#3 -22962975#2 -22962975#1 30221015#0 240027181#0 240027181#1 450023077#0 450023077#1 302527228#0 302527228#1 128569358#0 369988981#1 228818584 228818584.21 20848455#0 143866321 369977730#1 369977730#2 52375081#0 10564223#0 68748484#0 360313821 375778083 375778088#0 129211785#0 129211785#2 227767347#0 227767347#1 -128570949#1 16551144 48483331#0 20848454#0" />
	<route id="r24" edges="547144822#0 230483152#0 13890256 2294384#0 4472590#0 37721356#0 4078079#1 38192817 gneE51 gneE52 -43321722 -43321718#3 -43321718#2 43321719#0 -125886704 -43870791#1 -369977727#1 -369977727#0 -360313824#0 360313825#0 360313825#1 360313825#2 369977729#0 228818597#0 228818597#1 228818578" />
	<route id="r25" edges="547144822#0 230483152#0 13890256 2294384#0 4472590#0 37721356#0 4078079#1 38192817 gneE51 gneE49 532427445#0 48454248#0 14039718#0 30221015#0 240027181#0 240027181#1 450023077#0 450023077#1 302527228#0 302527228#1 128569358#0 369988981#1 228818584 228818584.21 20848455#0 143866321 369977730#1 129211795 23395388#5 23395388#6 115656107" />
	<route id="r26" edges="-8111025 -25466631#6 -25466631#3 -612719551#3 -563920576 33854576 4287348#1 -525228766#5 -525228766#2 -525228766#0 4628794#0 4628794#3 398224850#0 4628797#0 4628797#1 49974590#0 59416357#0 59416357#2 -13894939#5 -13894939#2 -13894939#1 -125880830#9 -125880830#7 -125880830#6 -125880830#4 -125880830#3 -125880830#2 -13866331#2 -51128240#3 -228818579#5 -228818579#3 -228818579#1 5976031#0 5976031#1 5976031#3 302527228#0 302527228#1 128569358#0 369988981#1 -43034941#0 gneE72 -128571079#1 129211848#0 -127219363 -77499031#0 129211827#0 38090686#0 52375060#0" />
	<route id="r27" edges="-3791034#1 4074528#0 125872847#0 3792428 3792427#0 52879956 357012332#0 357012332#1 59604115 37956677#0 4476051#0 352376956#0 4472595#0 26602093#0 15464769#2 15464767#0 -14039867#2 369977731 -22962977#2 gneE59 -43870791#1 -369977727#1 -369977727#0 -360313824#0 360313825#0 360313825#1 360313825#2 369977729#0 228818597#0 228818577#1" />
	<route id="r28" edges="-3791034#1 4074528#0 125872847#0 3792428 3792427#0 52879956 357012332#0 357012332#1 59604115 37956677#0 4476051#0 352376956#0 4472595#0 26602093#0 15464769#2 15464767#0 15464767#5 42636056 38192815" />
	<route id="r29" edges="-3791034#1 4074528#0 125872847#0 3792428 3792427#0 52879956 357012332#0 357012332#1 59604115 37956677#0 4476051#0 352376956#0 4472595#0 26602093#0 -15464769#0 4919535#1 4919460 4919471#2 24687121#0 24687121#2 4919459#2 4919617 -238740928#2" />
	<route id="r30" edges="37721501#0 4571776#0 4571776#5 4571776#7 12854625#3 24954647 3789576 317127417#0 80433528 4401806 128450677#0 128450676#0 128450676#3 14327272#0 14327272#2 430591268#0 430591268#2 430591268#3 129211824 317219094#0 129211847#0 -137667338#3 -137667338#1 372460212#2 372460212#3 385558485#0 385558485#1 -317101094#13 -317101094#12 -317101094#11 129211830#0 129211855 -129211831 317219096#0" />
	<route id="r31" edges="3716924 14327271 14327272#0 14327272#2 430591268#0 430591268#2 430591268#3 129211824 317219094#0 129211847#0 -137667338#3 -137667338#1 372460212#2 372460212#3 385558485#0 77499047" />
	<route id="r32" edges="3716924 14327271 14327272#0 14327272#2 430591268#0 430591268#2 430591268#3 129211824 317219094#0 317219094#1 362985327#0 362985327#3 376465157#0 362985328#1 9189208#0 9189208#1 9189208#2 317219091#0 317219091#2 317219091#3 317219091#5 376465146#2 317544590#0 317544590#1 376465147#0 376465147#2 39523885#8 39523885#9 39523885#10 218851685#0 -38668910#1 -4934501#14 -4934501#12 -4934501#11 -4934501#9 -4934501#8 -4934501#4 -13866426 40070420#0 -13866342#1" />
	<route id="r33" edges="3716924 14327271 14327272#0 14327272#2 430591268#0 430591268#2 430591268#3 129211824 317219094#0 317219094#1 362985327#0 362985327#3 376465157#0 362985328#1 -426154661#6 -426154661#5 -426154661#4 -426154661#3 -426154661#0 -317554421#3 -230478913 230478914#1 230478916#0 230478916#1 230478916#3 228694841 -22999104#4 -24776573#1 39523885#0 22999125#0 22999125#2 -24776574#5" />
	<route id="r34" edges="4934501#0 4934501#5 4934501#9 4934501#10 4934501#12 4934501#13 38375201#0 38375201#1 38375201#5 38375201#6 38375201#7 -379667727#4 666320561#0 -38375201#6 -38375201#5 -38375201#4 -38375201#0 -4934502#1 -4934502#0 -4287294#9 -4287294#2 -4287294#0 -228818579#7 -228818579#5 -228818579#3 -228818579#1 5976031#0 5976031#1 5976031#3 302527228#0 302527228#1 128569358#0 369988981#1 228818584 228818584.21 20848455#0 143866321 369977730#1 369977730#2 52375081#0 10564223#0 68748484#0 360313821 375778083 375778088#0 143866305#0 143866305#1 -372460213#8 -372460213#6 -372460213#1 -56681847#4 -52881220#3 -52881220#1 -52881219#6 -52881218#4" />
	<route id="r35" edges="4629169#5 4629169#8 419502786#0 52879956 357012332#0 357012332#1 59604115 37956677#0 4476051#0 352376956#0 4472595#0 26602093#0 15464769#2 15464767#0 -14039867#2 -341583777#1 -5976022 gneE49 532427445#0 48454248#0 14039718#0 30221015#0 240027181#0 240027181#1 450023077#0 450023077#1 302527228#0 31008937#0 31008937#1 369988979 25761610#0 25761610#4 -25761629" />
	<route id="r36" edges="2110697#0 -15464769#2 14152304#0 14152304#2 532427444#7 16309917#0 16309917#2 -6192247#2 23045804#0 6192171#0 52375081#0 10564223#0 68748484#0 360313821 375778083 375778088#0 143866305#0 143866311#0 23395388#0 23395388#2 23395388#3 23395388#4 23395388#5 23395388#6 115656107" />
	<route id="r37" edges="2110697#0 -15464769#2 14152304#0 14152304#2 532427444#7 16309917#0 16309917#2 -6192247#2 23045804#0 6192171#0 52375081#0 10564223#0 68748484#0 360313821 375778083 375778088#0 143866305#0 143866311#0 23395388#0 23395388#2 23395388#3 23395388#4 23395388#5 23395388#6 48483332#1" />
	<route id="r38" edges="70595235#0 362939725 70595240 125872496 271165125#0 43981321#0 578973719#0 578973719#1 578973719#2 4401569 405573992#0 4401523 372838330#0 372838330#1 372838330#2 13907389 3791747#0 3791747#1 556390402#0 556390402#2 125863788 292236197 13907388 3789575#0 -5976030 -128570949#1 16551144" />
	<route id="r39" edges="4401806 128450677#0 128450676#0 128450676#3 14327272#0 14327272#2 430591268#0 430591268#2 430591268#3 129211824 317219094#0 317219094#1 362985327#0 362985327#3 376465157#0 362985328#1 -426154661#6 -426154661#5 -426154661#4 -426154661#3 -426154661#0 -317554421#3 -230478913 230478914#1 230478916#0 230478916#1 230478916#3 228694841 -22999104#4 -22999104#3 -22999098#3 24776574#0 24776574#1 -24776575#3" />
	<route id="r40" edges="229823258 341583777#0 369977731 -372223886#1 22962979 -532427444#2 -341583777#1 -5976022 gneE49 532427445#0 77616869#0 4628792#0 4628792#3 75741007 4628790 59416359#0 4628791#0 4628797#0 4628797#1 49974590#0 5976027#0 13873182 13873181#0 238334895#0 -44398171#1 6653000#0 6653000#2 6653000#4 6653000#5 368646804#0" />
	<route id="r41" edges="gneE28 4408238#2 12854626#0 12854626#3 gneE29 37865098#0 37865098#2 -16247623 4919464 60010826#0 60010826#3 143278854#0 360313823#0 360313823#1 369652829#0 23045780#0 23045780#2 23045782" />
	<route id="r42" edges="3787955#0 37955513#0 37722122#0 4396046#0 4396046#1 18927706#0 18927706#3 372245388#1 gneE29 125863788 292236197 13907388 3789575#0 -5976030 -227767347#1 -227767347#0 361585261#0 143866293#0 143866305#0 143866305#1 384312815 129211799#2 52375071 369988984#2 -52375060#2 -52375062" />
	<route id="r43" edges="3787955#0 37955513#0 37722122#0 4396046#0 4396046#1 18927706#0 18927706#3 372245388#1 gneE29 37865098#0 37865098#2 -16247623 4919464 60010826#0 60010826#3 143278854#0 360313823#0 360313823#1 6192247#0 16309916#0" />
	<route id="r44" edges="3787955#0 37955513#0 37722122#0 4396046#0 4396046#1 18927706#0 18927706#3 372245388#1 gneE29 37865098#0 37865098#2 4396059#1" />
	<route id="r45" edges="125814598 64361352 -292662748 292662748 -64361352 -125814598 3789247#0 317127411 3708838#1 360313819#0 360313819#2 360313819#3 360313819#4 3716924 14327271 14327272#0 14327272#2 430591268#0 430591268#2 430591268#3 129211824 317219094#0 317219094#1 362985327#0 362985327#3 20848430#0 20848430#1 -31982229#1 -683418232#1 -683418232#0 31982163 -31982160#0" />
	<route id="r46" edges="514848250 24953717 4472591#0 4472592#0 488735970 675882488#0 10590795#0 129212232#0 372838330#1 372838330#2 13907389 3791747#0 3791747#1 556390402#0 556390402#2 125863788 292236197 13907388 3789575#0 -5976030 -227767347#1 -227767347#0 361585261#0 143866293#0 143866305#0 143866305#1 384312815 129211799#2 52375071 369988984#2 -52375060#2 -52375060#0" />
	<route id="r47" edges="514848250 24953717 4472591#0 4472592#0 488735970 675882488#0 10590795#0 10590795#2 10590795#3 25631097#0 13907389 3791747#0 3791747#1 556390402#0 556390402#2 125863788 292236197 13907388 3789575#0 -5976030 -227767347#1 -227767347#0 361585261#0 143866293#0 143866305#0 143866305#1 -372460213#8 -372460213#6 -372460213#1 -56681847#4 -52881220#3 -52881220#1 -52881219#6 20848425#0 20848427#0 52881217#0 20848428" />
	<route id="r48" edges="26545993#0 4074531#0 372838323#0 372838323#1 4074533 3791033 532096352#0 4074528#0 125872847#0 3792428 3792427#0 52879956 357012332#0 357012332#1 59604115 37956677#0 4476051#0 352376956#0 4472595#0 26602093#0 15464769#2 15464767#0 -14039867#2 -341583777#1 -5976022 gneE49 532427445#0 48454248#0 14039718#0 30221015#0 240027181#0 240027181#1 450023077#0 450023077#1 302527226#0 302527226#1 228818596#0 228818596#2 129211813#0" />
	<route id="r49" edges="4476043#0 4476041#0 gneE66 gneE70 488735970 675882488#0 10590795#0 129212232#0 372838330#1 372838330#2 13907389 3791747#0 3791747#1 556390402#0 556390402#2 125863788 292236197 13907388 3789575#0 -5976030 -227767347#1 -227767347#0 361585261#0 143866293#0 143866305#0 143866311#0 23395388#0 129211851#0 -129211792" />
	<route id="r50" edges="4476043#0 4476041#0 gneE66 gneE70 488735970 675882488#0 10590795#0 129212232#0 372838330#1 372838330#2 13907389 3791747#0 3791747#1 556390402#0 556390402#2 37865098#0 37865098#2 -16247623 4919464 60010826#0 60010826#3 143278854#0 360313823#0 360313823#1 369652829#0 369652829#4 gneE59 125886704 125886705#0 22962975#1 48455139#0 48455139#3 48455139#4 78060945 48455136#1 -125880830#7 -125880830#6 -125880830#4" />
	<route id="r51" edges="4476043#0 4476041#0 gneE66 gneE70 488735970 675882488#0 10590795#0 129212232#0 372838330#1 372838330#2 13907389 3791747#0 3791747#1 556390402#0 556390402#2 37865098#0 37865098#2 -16247623 4919464 60010826#0 60010826#3 143278854#0 360313823#0 360313823#1 369652829#0 369652829#4 gneE59 125886704 125886705#0 30221015#0 240027181#0 240027181#1 450023077#0 450023077#1 302527226#0 302527226#1" />
	<route id="r52" edges="372838324#5 362939724#1 4253728#0 74232837#1 4472591#0 4472592#0 488735970 675882488#0 10590795#0 129212232#0 372838330#1 372838330#2 13907389 3791747#0 3791747#1 556390402#0 556390402#2 125863788 292236197 13907388 3789575#0 -5976030 -227767347#1 -227767347#0 361585261#0 143866293#0 143866305#0 143866311#0 23395388#0 23395388#2 -20848457" />
	<route id="r53" edges="gneE58 22962977#0 -372223886#1 22962979 -532427444#2 -341583777#1 -5976022 gneE49 532427445#0 48454248#0 14039718#0 30221015#0 240027181#0 240027181#1 450023077#0 450023077#1 302527226#0 302527226#1 317544589#1 317544589#2 129211821#0 151482073" />
	<route id="r54" edges="317003249#1 317003249#2 -668344588 -43538577#3 -43538577#1 -16247623 4919464 60010826#0 60010826#3 143278854#0 6192171#0 52375081#0 10564223#0 68748484#0 360313821 375778083 375778088#0 143866305#0 143866305#1 -372460213#8 -372460213#6 -372460213#1 -56681847#4 -52881220#3 -52881220#1 -52881219#6 -52881218#4 129774677#0 401904746#0 32642508#2 300664729 -307347592" />
	<route id="r55" edges="gneE58 22962977#0 -372223886#1 22962979 -532427444#2 -341583777#1 -5976022 gneE49 532427445#0 77616869#0 4628792#0 4628792#3 75741007 4628790 59416359#0 4628791#0 4628797#0 228373561 228373543#0 228373543#1 228373543#3 153341565#0 33854575#0 32631503#0 -32631503#2 -33854575#1 4926209#0" />
	<route id="r56" edges="gneE58 22962977#0 -372223886#1 22962979 -532427444#2 -341583777#1 -5976022 gneE49 532427445#0 77616869#0 4628792#0 4628792#3 75741007 4628790 59416359#0 4628791#0 4628797#0 4628797#1 49974590#0 5976027#0 13873182 13873181#0 238334895#0 4287295#0 4287295#3 44007601#0 -44007601#4 -368646813#0 -4287295#2" />
	<route id="r57" edges="gneE58 22962977#0 -372223886#1 -369652831 -16309916#1 -16309916#0 23045804#0 6192171#0 52375081#0 10564223#0 68748484#0 360313821 375778083 375778088#0 143866305#0 143866305#1 384312815 129211799#2 372226866 372226870#0 372226870#2 510208230#1 -128571079#1 -20848447#3 -20848447#0 -317101094#13 -60067110" />
	<route id="r58" edges="3787951#0 gneE65 3787950#1 70410634#1 125872496 271165125#0 43981321#0 578973719#0 578973719#1 578973719#2 4401569 405573992#0 4401523 372838330#0 372838330#1 372838330#2 13907389 3791747#0 3791747#1 556390402#0 556390402#2 37865098#0 37865098#2 -16247623 4919464 60010826#0 60010826#3 143278854#0 360313823#0 360313823#1 369652829#0 369652829#4 gneE59 4078078#0 43321718#0 43321718#3 43321722 gneE53 gneE49 532427445#0 14039609#0 -14039611#1 14039614" />
	<route id="r59" edges="3787951#0 gneE65 3787950#1 70410634#1 125872496 271165125#0 43981321#0 578973719#0 578973719#1 578973719#2 4401569 405573992#0 4401523 372838330#0 372838330#1 372838330#2 13907389 3791747#0 3791747#1 556390402#0 556390402#2 37865098#0 37865098#2 4396059#1 43538577#3 668344588 3791745#0 3791745#4 4919462#0 4919462#1 4919616#0 4919615#0 4919615#4 38167515 4919535#1 -14152308 14152304#2" />
	<route id="r60" edges="56681847#1 372460213#0 372460213#3 129211817#0 -129211818#1 -372460213#1 -56681847#4 430591268#0 430591268#2 430591268#3 129211824 317219094#0 317219094#1 362985327#0 362985327#3 20848430#0 20848430#1 -31982229#1 -683418232#1 -683418232#0 -317554424#3 -317554424#1 -16548865#9 -16548865#7 -16548865#5 68295381#0 68295381#2 308028937 31992882#1" />
	<route id="r61" edges="56681847#1 372460213#0 372460213#3 372460213#7 20848454#0 133909794#0 129211785#2 227767347#0 227767347#1 -129211789#5 -129211789#3 -129211789#0 127546529#5 3789575#0 4401781#0 4401781#1 4401781#4 4408221 38587823 4401787 3708465#0 31004181#3 31004181#4 31004181#5 31004181#7 -3708578#0" />
	<route id="r62" edges="56681847#1 372460213#0 372460213#3 372460213#7 20848454#0 133909794#0 129211785#2 227767347#0 227767347#1 5976030 gneE22 4408238#0 4408238#2 12854626#0 12854626#3 gneE29 37865098#0 37865098#2 4396059#1 43538577#3 668344588 3791745#0 3791745#4 4919462#0 4919462#1 4919616#0 4919617 -238740928#2" />
	<route id="r63" edges="133909794#0 129211785#2 227767347#0 227767347#1 -128570949#1 16551144 48483331#0 -372460213#8 -372460213#6 -372460213#1 -56681847#4 430591268#0 430591268#2 430591268#3 129211824 317219094#0 129211847#0 -137667338#3 -137667338#1 372460212#2 372460212#3 385558485#0 385558485#1 20848446#1 20848446#3 -25761629 130304206 -191042860#2 -191042860#1 -191042860#0 191042863 -31008788 25553733#0 54451003#2 128570155 -125873172#5 -125873172#4 -125873172#1 -563920582 125880830#0 125880830#2 125880830#3 125880830#4 125880830#6" />
	<route id="r64" edges="133909794#0 129211785#2 227767347#0 227767347#1 -128570949#1 -369359214 -129211817#2 129211818#2 -16551144 128570949#0 -227767347#1 -227767347#0 361585261#0 143866293#0 143866305#0 143866311#0 23395388#0 23395388#2 23395388#3 23395388#4 -129211795 369977730#2 52375081#0 10564223#0 10564223#1 128570043#0 128570043#1 52881222 264901993#0 60010826#0 60010826#3 143278854#0 360313823#0 23050596 23050597" />
	<route id="r65" edges="133909794#0 129211785#2 227767347#0 227767347#1 -128570949#1 -369359214 -430591274#4 14327272#2 -52881220#3 -52881220#1 -52881219#6 -52881218#4 129774677#0 401904746#0 32642508#2 300664729 300664821#1 300664821#2 300664821#3" />
	<route id="r66" edges="48483331#0 -372460213#8 129211817#0 129211818#2 -16551144 128570949#0 -227767347#1 -227767347#0 361585261#0 143866293#0 143866305#0 143866305#1 384312815 129211799#2 372226866 372226870#0 372226870#2 510208230#1 gneE71 43034941#0 -43034941#0 129211828#0 -369988979 -317219088 129211823#0 -227705590" />
	<route id="r67" edges="128570947 430591274#1 369359214 128570949#0 -129211789#5 -129211789#3 -129211789#0 127546529#5 3789575#0 4401781#0 4401781#1 4401781#4 4408221 38587823 37721990 13907386#0 4401971 4937058 3789576 12854623#0 3708575#0 -125814370 3708472 44115695 64272629" />
	<route id="r68" edges="128570947 430591274#1 -129211817#2 -129211818#1 -372460213#1 -56681847#4 -52881220#3 -52881220#1 -52881219#6 -52881218#4 81310506#0 23347664#0" />
	<route id="r69" edges="128570947 430591274#1 369359214 128570949#0 -227767347#1 -227767347#0 361585261#0 143866293#0 143866305#0 143866305#1 384312815 129211799#2 372226866 372226870#0 372226870#2 510208230#1 -128571079#1 -20848447#3 -20848447#0 20848446#1 20848446#3 -25761629 130304206 -191042860#2 -191042860#1 -191042860#0 191042863 -31008788 25553733#0 54451003#2 128570155 -125873172#5 -125873172#4 -125873172#1 -563920582 125880830#0 -13866331#2 51128240#4" />
	<route id="r70" edges="4402007#1 332207648#1 332207648#3 332207648#5 -33925610#5 -33925610#2 -33925611#1 -81310503 -303325200#1 -81310506#5 52881218#0 52881219#1 52881220#0 52881220#2 430591268#0 430591268#2 430591268#3 129211824 317219094#0 129211847#0 -137667338#3 -137667338#1 372460212#2 372460212#3 385558485#0 385558485#1 -317101094#13 -317101094#12 -317101094#11 129211830#0 129211855 -129211831 -54451007#6 -449556613#1 25731436#1 25731441" />
	<route id="r71" edges="gneE29 37865098#0 37865098#2 -16247623 4919464 60010826#0 60010826#3 143278854#0 360313823#0 360313823#1 369652829#0 369652829#4 gneE59 125886704 125886705#0 30221015#0 240027181#0 240027181#1 450023077#0 450023077#1 302527226#0 302527226#1 317544589#1 317544589#2 5976031#0 5976031#1 449366744 25553646 317544588#0" />
	<route id="r72" edges="3789702 43100899#0 162745567#0 162745567#1 162745567#2 8080835 14047759#0 -52881850#1 -548793704#1 3957139#1 12341239#0 12341238#0 4395994#0 4395994#2 556040851#0 556040851#1 147075690 31028290 229061163#0 229061163#1 4908204 -317027067 -52321641#5 -52321641#3 -52321641#2 -52321641#0 -310196055 310196056 -372256216#7 -372256216#6 -372256216#4 -372256216#3 -372256216#2 -372256216#0 -401912432#4 -3789252#3 -3789252#2" />
	<route id="r73" edges="gneE29 125863788 292236197 13907388 3789575#0 -5976030 -227767347#1 -227767347#0 361585261#0 143866293#0 143866305#0 143866305#1 -372460213#8 -372460213#6 -372460213#1 -56681847#4 -52881220#3 -52881220#1 -52881219#6 -52881218#4 129774677#0 401904746#0 401904746#2 401904747 -190792171#5 -4571527#7 -4571527#3 -4571527#0 -33078543 -282195032#9 -282195032#5 -282195032#4" />
	<route id="r74" edges="gneE29 125863788 292236197 13907388 3789575#0 -5976030 -227767347#1 -227767347#0 361585261#0 143866293#0 143866305#0 143866305#1 384312815 129211799#2 372226866 372226870#0 372226870#2 510208230#1 -128571079#1 -20848447#3 -20848447#0 20848446#1 20848446#3 -25761629 130304206 -191042860#2 -191042860#1 31986265 -54451007#1 31992254 77499348#1" />
	<route id="r75" edges="23086918#1 372245388#0 372245388#1 gneE29 37865098#0 37865098#2 -16247623 4919464 60010826#0 60010826#3 143278854#0 360313823#0 360313823#1 369652829#0 23045780#0 23045780#2 23045781" />
	<route id="r76" edges="13907386#0 4401971 4937058 3789576 317127417#0 80433528 4401806 128450677#0 128450676#0 128450676#3 14327272#0 430591274#1 369359214 128570949#0 -227767347#1 -227767347#0 361585261#0 143866293#0 143866305#0 143866311#0 23395388#0 23395388#2 23395388#3 23395388#4 -129211795 369977730#2 52375081#0 10564223#0 10564223#1 128570043#0 128570043#1 52881222 264901993#0 60010826#0 60010826#3 143278854#0 360313823#0 360313823#1 369652829#0 369652829#4 gneE59 125886704 125886705#0 22962975#1 48455139#0" />
	<route id="r77" edges="4934661#0 4571527#0 4571527#1 4571527#4 4571527#9 190792171#6 317554423#0 317003254#0 -129774677#3 52881218#0 52881219#1 52881220#0 52881220#2 56681847#1 372460213#0 372460213#3 372460213#7 20848454#0 133909794#0 129211785#2 227767347#0 227767347#1 5976030 gneE22 4408238#0 3789374#0 39994849#0 39994849#1 33969753#0 33969753#2 23086918#0 23086918#1 372245388#0" />
	<route id="r78" edges="-129774678#4 -530407780 4571527#4 4571527#9 190792171#6 317554423#0 317003254#0 -129774677#3 52881218#0 52881219#1 52881220#0 52881220#2 430591268#0 430591268#2 430591268#3 129211824 317219094#0 129211847#0 -137667338#3 -137667338#1 372460212#2 372460212#3 385558485#0 385558485#1 20848446#1 20848446#3 -25761629 130304206 -191042860#2 25731440#0" />
	<route id="r79" edges="-129774678#4 -530407780 4571527#4 4571527#9 190792171#6 317554423#0 317003254#0 -129774677#3 52881218#0 52881219#1 52881220#0 52881220#2 56681847#1 372460213#0 129211818#0 129211818#2 -16551144 128570949#0 -227767347#1 -227767347#0 361585261#0 143866293#0 143866305#0 143866305#1 384312815 129211799#2 52375071 -52375073#1" />
	<route id="r80" edges="4074526#0 4074526#4 317003251#0 4078079#1 38192817 gneE51 gneE49 532427445#0 48454248#0 14039718#0 30221015#0 240027181#0 240027181#1 450023077#0 450023077#1 302527228#0 302527228#1 128569358#0 369988981#1 -43034941#0 gneE72 -128571079#1 -20848447#3 -20848447#0 -20848446#0 -385558485#0 -372460212#3 -268965318" />
	<route id="r81" edges="-231612455#3 -231612454 5825858#4 81982579#0 563891696#1 -563891689#1 -3708464#4 -3708464#1 -3708464#0 -563891690#1 -563891691 -3708463#3 -3708463#1 -125814738#2 -125814738#1 -125814598 3789247#0 317127411 3708838#1 360313819#0 360313819#2 360313819#3 360313819#4 3716924 14327271 14327272#0 14327272#2 430591268#0 430591268#2 430591268#3 129211824 317219094#0 317219094#1 -27219884#2 -138744440" />
	<route id="r82" edges="gneE28 4408238#2 12854626#0 12854626#3 gneE29 125863788 292236197 13907388 3789575#0 -5976030 -227767347#1 -227767347#0 361585261#0 143866293#0 143866305#0 143866305#1 384312815 129211799#2 372226866 372226870#0 372226870#2 510208230#1 gneE71 43034941#0 -43034941#0 129211828#0 -369988979 -317219088 -317544588#3 -317544588#1 -369988978#5 -369988978#3 -369988978#2 -129211806#4" />