<?xml version="1.0" encoding="UTF-8"?>

<!-- generated on 2022-09-28 16:35:42 by Eclipse SUMO netconvert Version 1.12.0
<configuration xmlns:xsi="http://www.w3.org/2001/XMLSchema-instance" xsi:noNamespaceSchemaLocation="http://sumo.dlr.de/xsd/netconvertConfiguration.xsd">

    <input>
        <osm-files value="/home/svadlmat/UTC/utc/data/maps/osm/filtered/Berlin_filtered.osm"/>
    </input>

    <output>
        <output-file value="/home/svadlmat/UTC/utc/data/maps/sumo/Berlin.net.xml"/>
    </output>

    <projection>
        <proj.utm value="true"/>
    </projection>

    <processing>
        <numerical-ids.node-start value="0"/>
        <numerical-ids.edge-start value="0"/>
        <geometry.remove value="true"/>
        <roundabouts.guess value="true"/>
    </processing>

    <ramp_guessing>
        <ramps.guess value="true"/>
    </ramp_guessing>

    <edge_removal>
        <keep-edges value="1"/>
        <remove-edges.isolated value="true"/>
    </edge_removal>

    <junctions>
        <junctions.join value="true"/>
    </junctions>

    <report>
        <aggregate-warnings value="5"/>
    </report>

</configuration>
-->

<net version="1.9" junctionCornerDetail="5" limitTurnSpeed="5.50" xmlns:xsi="http://www.w3.org/2001/XMLSchema-instance" xsi:noNamespaceSchemaLocation="http://sumo.dlr.de/xsd/net_file.xsd">

    <location netOffset="-389826.94,-5817768.79" convBoundary="0.00,0.00,2008.01,1764.98" origBoundary="13.376844,52.499173,13.406452,52.514997" projParameter="+proj=utm +zone=33 +ellps=WGS84 +datum=WGS84 +units=m +no_defs"/>

    <type id="highway.bridleway" priority="1" numLanes="1" speed="2.78" allow="pedestrian" oneway="1" width="2.00"/>
    <type id="highway.bus_guideway" priority="1" numLanes="1" speed="27.78" allow="bus" oneway="1"/>
    <type id="highway.cycleway" priority="1" numLanes="1" speed="8.33" allow="bicycle" oneway="0" width="1.00"/>
    <type id="highway.footway" priority="1" numLanes="1" speed="2.78" allow="pedestrian" oneway="1" width="2.00"/>
    <type id="highway.ford" priority="1" numLanes="1" speed="2.78" allow="army" oneway="0"/>
    <type id="highway.living_street" priority="2" numLanes="1" speed="2.78" disallow="tram rail_urban rail rail_electric rail_fast ship" oneway="0"/>
    <type id="highway.motorway" priority="14" numLanes="2" speed="39.44" allow="private emergency authority army vip passenger hov taxi bus coach delivery truck trailer motorcycle evehicle custom1 custom2" oneway="1"/>
    <type id="highway.motorway_link" priority="9" numLanes="1" speed="22.22" allow="private emergency authority army vip passenger hov taxi bus coach delivery truck trailer motorcycle evehicle custom1 custom2" oneway="1"/>
    <type id="highway.path" priority="1" numLanes="1" speed="2.78" allow="pedestrian bicycle" oneway="0" width="2.00"/>
    <type id="highway.pedestrian" priority="1" numLanes="1" speed="2.78" allow="pedestrian" oneway="1" width="2.00"/>
    <type id="highway.primary" priority="12" numLanes="2" speed="27.78" disallow="tram rail_urban rail rail_electric rail_fast ship" oneway="0"/>
    <type id="highway.primary_link" priority="7" numLanes="1" speed="22.22" disallow="tram rail_urban rail rail_electric rail_fast ship" oneway="0"/>
    <type id="highway.raceway" priority="15" numLanes="2" speed="83.33" allow="vip" oneway="0"/>
    <type id="highway.residential" priority="3" numLanes="1" speed="13.89" disallow="tram rail_urban rail rail_electric rail_fast ship" oneway="0"/>
    <type id="highway.secondary" priority="11" numLanes="1" speed="27.78" disallow="tram rail_urban rail rail_electric rail_fast ship" oneway="0"/>
    <type id="highway.secondary_link" priority="6" numLanes="1" speed="22.22" disallow="tram rail_urban rail rail_electric rail_fast ship" oneway="0"/>
    <type id="highway.service" priority="1" numLanes="1" speed="5.56" allow="pedestrian delivery bicycle" oneway="0"/>
    <type id="highway.stairs" priority="1" numLanes="1" speed="1.39" allow="pedestrian" oneway="1" width="2.00"/>
    <type id="highway.step" priority="1" numLanes="1" speed="1.39" allow="pedestrian" oneway="1" width="2.00"/>
    <type id="highway.steps" priority="1" numLanes="1" speed="1.39" allow="pedestrian" oneway="1" width="2.00"/>
    <type id="highway.tertiary" priority="10" numLanes="1" speed="22.22" disallow="tram rail_urban rail rail_electric rail_fast ship" oneway="0"/>
    <type id="highway.tertiary_link" priority="5" numLanes="1" speed="22.22" disallow="tram rail_urban rail rail_electric rail_fast ship" oneway="0"/>
    <type id="highway.track" priority="1" numLanes="1" speed="5.56" allow="pedestrian motorcycle moped bicycle" oneway="0"/>
    <type id="highway.trunk" priority="13" numLanes="2" speed="27.78" disallow="pedestrian bicycle tram rail_urban rail rail_electric rail_fast ship" oneway="0"/>
    <type id="highway.trunk_link" priority="8" numLanes="1" speed="22.22" disallow="pedestrian bicycle tram rail_urban rail rail_electric rail_fast ship" oneway="0"/>
    <type id="highway.unclassified" priority="4" numLanes="1" speed="13.89" disallow="tram rail_urban rail rail_electric rail_fast ship" oneway="0"/>
    <type id="highway.unsurfaced" priority="1" numLanes="1" speed="8.33" disallow="tram rail_urban rail rail_electric rail_fast ship" oneway="0"/>
    <type id="railway.highspeed" priority="21" numLanes="1" speed="69.44" allow="rail_fast" oneway="1"/>
    <type id="railway.light_rail" priority="19" numLanes="1" speed="27.78" allow="rail_urban" oneway="1"/>
    <type id="railway.preserved" priority="16" numLanes="1" speed="27.78" allow="rail" oneway="1"/>
    <type id="railway.rail" priority="20" numLanes="1" speed="44.44" allow="rail" oneway="1"/>
    <type id="railway.subway" priority="18" numLanes="1" speed="27.78" allow="rail_urban" oneway="1"/>
    <type id="railway.tram" priority="17" numLanes="1" speed="13.89" allow="tram" oneway="1"/>

    <edge id=":0_0" function="internal">
        <lane id=":0_0_0" index="0" disallow="tram rail_urban rail rail_electric rail_fast ship" speed="8.33" length="8.30" shape="1077.06,1270.10 1079.34,1270.48 1081.02,1269.95 1082.72,1269.35 1085.06,1269.56"/>
        <lane id=":0_0_1" index="1" disallow="tram rail_urban rail rail_electric rail_fast ship" speed="8.33" length="8.30" shape="1075.85,1273.06 1078.21,1273.48 1079.94,1272.96 1081.70,1272.39 1084.12,1272.61"/>
        <lane id=":0_0_2" index="2" disallow="tram rail_urban rail rail_electric rail_fast ship" speed="8.33" length="8.30" shape="1075.85,1273.06 1083.17,1275.67"/>
        <lane id=":0_0_3" index="3" disallow="tram rail_urban rail rail_electric rail_fast ship" speed="8.33" length="8.30" shape="1075.85,1273.06 1077.94,1274.45 1079.00,1276.02 1080.07,1277.54 1082.23,1278.73"/>
    </edge>
    <edge id=":1_0" function="internal">
        <lane id=":1_0_0" index="0" disallow="tram rail_urban rail rail_electric rail_fast ship" speed="13.89" length="0.30" shape="1186.89,1279.58 1187.18,1279.60"/>
        <lane id=":1_0_1" index="1" disallow="tram rail_urban rail rail_electric rail_fast ship" speed="13.89" length="0.30" shape="1186.61,1282.76 1186.91,1282.79"/>
        <lane id=":1_0_2" index="2" disallow="tram rail_urban rail rail_electric rail_fast ship" speed="13.89" length="0.30" shape="1186.33,1285.95 1186.63,1285.98"/>
    </edge>
    <edge id=":10_0" function="internal">
        <lane id=":10_0_0" index="0" disallow="tram rail_urban rail rail_electric rail_fast ship" speed="13.89" length="0.10" shape="381.54,595.42 381.54,595.42"/>
    </edge>
    <edge id=":100_0" function="internal">
        <lane id=":100_0_0" index="0" disallow="tram rail_urban rail rail_electric rail_fast ship" speed="6.46" length="9.03" shape="437.21,520.06 438.37,517.87 438.54,515.84 437.72,513.98 435.91,512.28"/>
    </edge>
    <edge id=":100_1" function="internal">
        <lane id=":100_1_0" index="0" disallow="tram rail_urban rail rail_electric rail_fast ship" speed="13.89" length="11.21" shape="437.21,520.06 443.79,510.99"/>
    </edge>
    <edge id=":101_0" function="internal">
        <lane id=":101_0_0" index="0" disallow="tram rail_urban rail rail_electric rail_fast ship" speed="13.89" length="0.10" shape="195.44,481.12 195.44,481.12"/>
    </edge>
    <edge id=":101_1" function="internal">
        <lane id=":101_1_0" index="0" disallow="tram rail_urban rail rail_electric rail_fast ship" speed="13.89" length="0.10" shape="197.33,478.53 197.33,478.53"/>
    </edge>
    <edge id=":102_0" function="internal">
        <lane id=":102_0_0" index="0" disallow="tram rail_urban rail rail_electric rail_fast ship" speed="13.89" length="0.29" shape="681.97,1520.08 681.95,1520.37"/>
    </edge>
    <edge id=":102_1" function="internal">
        <lane id=":102_1_0" index="0" disallow="tram rail_urban rail rail_electric rail_fast ship" speed="13.89" length="0.31" shape="678.76,1520.14 678.78,1519.83"/>
    </edge>
    <edge id=":103_0" function="internal">
        <lane id=":103_0_0" index="0" disallow="tram rail_urban rail rail_electric rail_fast ship" speed="7.93" length="11.77" shape="608.23,936.60 604.95,936.77 602.35,937.80 600.44,939.69 599.21,942.43"/>
    </edge>
    <edge id=":103_1" function="internal">
        <lane id=":103_1_0" index="0" disallow="tram rail_urban rail rail_electric rail_fast ship" speed="8.33" length="16.48" shape="608.23,936.60 591.80,935.39"/>
    </edge>
    <edge id=":103_2" function="internal">
        <lane id=":103_2_0" index="0" disallow="tram rail_urban rail rail_electric rail_fast ship" speed="8.14" length="3.98" shape="608.23,936.60 604.37,935.60"/>
    </edge>
    <edge id=":103_3" function="internal">
        <lane id=":103_3_0" index="0" disallow="tram rail_urban rail rail_electric rail_fast ship" speed="3.65" length="1.44" shape="608.23,936.60 607.09,935.72"/>
    </edge>
    <edge id=":103_16" function="internal">
        <lane id=":103_16_0" index="0" disallow="tram rail_urban rail rail_electric rail_fast ship" speed="8.14" length="13.31" shape="604.37,935.60 604.09,935.53 601.66,933.01 600.96,929.05 601.98,923.64"/>
    </edge>
    <edge id=":103_17" function="internal">
        <lane id=":103_17_0" index="0" disallow="tram rail_urban rail rail_electric rail_fast ship" speed="3.65" length="3.23" shape="607.09,935.72 606.75,934.89 607.20,934.12 608.46,933.41"/>
    </edge>
    <edge id=":103_4" function="internal">
        <lane id=":103_4_0" index="0" disallow="tram rail_urban rail rail_electric rail_fast ship" speed="6.69" length="11.27" shape="605.04,924.58 604.29,928.28 604.60,930.99 605.99,932.70 608.46,933.41"/>
    </edge>
    <edge id=":103_5" function="internal">
        <lane id=":103_5_0" index="0" disallow="tram rail_urban rail rail_electric rail_fast ship" speed="13.89" length="18.78" shape="605.04,924.58 599.21,942.43"/>
    </edge>
    <edge id=":103_6" function="internal">
        <lane id=":103_6_0" index="0" disallow="tram rail_urban rail rail_electric rail_fast ship" speed="9.93" length="5.90" shape="605.04,924.58 602.88,929.59 602.59,929.93"/>
    </edge>
    <edge id=":103_7" function="internal">
        <lane id=":103_7_0" index="0" disallow="tram rail_urban rail rail_electric rail_fast ship" speed="3.65" length="1.44" shape="605.04,924.58 603.92,925.49"/>
    </edge>
    <edge id=":103_18" function="internal">
        <lane id=":103_18_0" index="0" disallow="tram rail_urban rail rail_electric rail_fast ship" speed="9.93" length="12.74" shape="602.59,929.93 599.96,933.06 596.26,934.99 591.80,935.39"/>
    </edge>
    <edge id=":103_19" function="internal">
        <lane id=":103_19_0" index="0" disallow="tram rail_urban rail rail_electric rail_fast ship" speed="3.65" length="3.23" shape="603.92,925.49 603.04,925.64 602.39,925.02 601.98,923.64"/>
    </edge>
    <edge id=":103_8" function="internal">
        <lane id=":103_8_0" index="0" disallow="tram rail_urban rail rail_electric rail_fast ship" speed="8.75" length="14.28" shape="592.05,932.20 595.34,931.87 598.10,930.33 600.31,927.59 601.98,923.64"/>
    </edge>
    <edge id=":103_9" function="internal">
        <lane id=":103_9_0" index="0" disallow="tram rail_urban rail rail_electric rail_fast ship" speed="8.33" length="16.46" shape="592.05,932.20 608.46,933.41"/>
    </edge>
    <edge id=":103_10" function="internal">
        <lane id=":103_10_0" index="0" disallow="tram rail_urban rail rail_electric rail_fast ship" speed="7.69" length="4.23" shape="592.05,932.20 596.17,933.12"/>
    </edge>
    <edge id=":103_11" function="internal">
        <lane id=":103_11_0" index="0" disallow="tram rail_urban rail rail_electric rail_fast ship" speed="3.65" length="1.44" shape="592.05,932.20 593.18,933.09"/>
    </edge>
    <edge id=":103_20" function="internal">
        <lane id=":103_20_0" index="0" disallow="tram rail_urban rail rail_electric rail_fast ship" speed="7.69" length="10.76" shape="596.17,933.12 598.74,935.13 599.76,938.24 599.21,942.43"/>
    </edge>
    <edge id=":103_21" function="internal">
        <lane id=":103_21_0" index="0" disallow="tram rail_urban rail rail_electric rail_fast ship" speed="3.65" length="3.23" shape="593.18,933.09 593.52,933.92 593.06,934.68 591.80,935.39"/>
    </edge>
    <edge id=":103_12" function="internal">
        <lane id=":103_12_0" index="0" disallow="tram rail_urban rail rail_electric rail_fast ship" speed="6.13" length="9.06" shape="596.13,941.57 596.46,939.04 595.85,937.16 594.29,935.95 591.80,935.39"/>
    </edge>
    <edge id=":103_13" function="internal">
        <lane id=":103_13_0" index="0" disallow="tram rail_urban rail rail_electric rail_fast ship" speed="13.89" length="18.86" shape="596.13,941.57 601.98,923.64"/>
    </edge>
    <edge id=":103_14" function="internal">
        <lane id=":103_14_0" index="0" disallow="tram rail_urban rail rail_electric rail_fast ship" speed="9.21" length="4.68" shape="596.13,941.57 597.83,937.74 598.17,937.39"/>
    </edge>
    <edge id=":103_15" function="internal">
        <lane id=":103_15_0" index="0" disallow="tram rail_urban rail rail_electric rail_fast ship" speed="3.65" length="1.44" shape="596.13,941.57 597.22,940.63"/>
    </edge>
    <edge id=":103_22" function="internal">
        <lane id=":103_22_0" index="0" disallow="tram rail_urban rail rail_electric rail_fast ship" speed="9.21" length="11.53" shape="598.17,937.39 600.45,935.10 603.99,933.66 608.46,933.41"/>
    </edge>
    <edge id=":103_23" function="internal">
        <lane id=":103_23_0" index="0" disallow="tram rail_urban rail rail_electric rail_fast ship" speed="3.65" length="3.23" shape="597.22,940.63 598.10,940.46 598.77,941.06 599.21,942.43"/>
    </edge>
    <edge id=":104_0" function="internal">
        <lane id=":104_0_0" index="0" disallow="tram rail_urban rail rail_electric rail_fast ship" speed="13.89" length="5.35" shape="1190.36,1302.66 1184.93,1302.28"/>
        <lane id=":104_0_1" index="1" disallow="tram rail_urban rail rail_electric rail_fast ship" speed="13.89" length="5.35" shape="1190.54,1299.47 1185.17,1299.09"/>
        <lane id=":104_0_2" index="2" disallow="tram rail_urban rail rail_electric rail_fast ship" speed="13.89" length="5.35" shape="1190.72,1296.27 1185.42,1295.90"/>
        <lane id=":104_0_3" index="3" disallow="tram rail_urban rail rail_electric rail_fast ship" speed="13.89" length="5.35" shape="1190.91,1293.08 1185.66,1292.71"/>
    </edge>
    <edge id=":105_0" function="internal">
        <lane id=":105_0_0" index="0" disallow="tram rail_urban rail rail_electric rail_fast ship" speed="8.79" length="17.40" shape="1171.29,1301.24 1168.77,1301.99 1166.81,1304.68 1165.41,1309.30 1164.58,1315.86"/>
    </edge>
    <edge id=":105_1" function="internal">
        <lane id=":105_1_0" index="0" disallow="tram rail_urban rail rail_electric rail_fast ship" speed="11.11" length="25.63" shape="1171.29,1301.24 1145.90,1297.59"/>
        <lane id=":105_1_1" index="1" disallow="tram rail_urban rail rail_electric rail_fast ship" speed="11.11" length="25.63" shape="1171.57,1298.05 1146.20,1294.41"/>
        <lane id=":105_1_2" index="2" disallow="tram rail_urban rail rail_electric rail_fast ship" speed="11.11" length="25.63" shape="1171.85,1294.86 1146.50,1291.22"/>
    </edge>
    <edge id=":105_4" function="internal">
        <lane id=":105_4_0" index="0" disallow="tram rail_urban rail rail_electric rail_fast ship" speed="4.88" length="6.82" shape="1172.13,1291.68 1169.69,1289.72 1168.98,1287.91 1169.89,1286.42"/>
    </edge>
    <edge id=":105_15" function="internal">
        <lane id=":105_15_0" index="0" disallow="tram rail_urban rail rail_electric rail_fast ship" speed="4.88" length="3.32" shape="1169.89,1286.42 1170.00,1286.26 1172.74,1284.76"/>
    </edge>
    <edge id=":105_5" function="internal">
        <lane id=":105_5_0" index="0" disallow="tram rail_urban rail rail_electric rail_fast ship" speed="11.11" length="25.53" shape="1148.04,1274.74 1173.30,1278.38"/>
        <lane id=":105_5_1" index="1" disallow="tram rail_urban rail rail_electric rail_fast ship" speed="11.11" length="25.53" shape="1147.74,1277.93 1173.02,1281.57"/>
        <lane id=":105_5_2" index="2" disallow="tram rail_urban rail rail_electric rail_fast ship" speed="11.11" length="25.53" shape="1147.47,1281.11 1172.74,1284.76"/>
    </edge>
    <edge id=":105_8" function="internal">
        <lane id=":105_8_0" index="0" disallow="tram rail_urban rail rail_electric rail_fast ship" speed="8.33" length="13.62" shape="1147.22,1284.31 1155.64,1286.85 1158.93,1290.38"/>
    </edge>
    <edge id=":105_9" function="internal">
        <lane id=":105_9_0" index="0" disallow="tram rail_urban rail rail_electric rail_fast ship" speed="4.89" length="6.81" shape="1147.22,1284.31 1149.64,1286.31 1150.32,1288.13 1149.39,1289.59"/>
    </edge>
    <edge id=":105_16" function="internal">
        <lane id=":105_16_0" index="0" disallow="tram rail_urban rail rail_electric rail_fast ship" speed="8.33" length="26.88" shape="1158.93,1290.38 1161.34,1292.96 1164.32,1302.63 1164.58,1315.86"/>
    </edge>
    <edge id=":105_17" function="internal">
        <lane id=":105_17_0" index="0" disallow="tram rail_urban rail rail_electric rail_fast ship" speed="4.89" length="3.34" shape="1149.39,1289.59 1149.27,1289.76 1146.50,1291.22"/>
    </edge>
    <edge id=":105_10" function="internal">
        <lane id=":105_10_0" index="0" disallow="tram rail_urban rail rail_electric rail_fast ship" speed="8.33" length="24.49" shape="1158.20,1315.39 1157.88,1308.08 1155.73,1302.68 1151.74,1299.18 1145.90,1297.59"/>
        <lane id=":105_10_1" index="1" disallow="tram rail_urban rail rail_electric rail_fast ship" speed="8.33" length="29.57" shape="1161.39,1315.63 1160.98,1306.93 1158.31,1300.49 1153.39,1296.32 1146.20,1294.41"/>
    </edge>
    <edge id=":105_12" function="internal">
        <lane id=":105_12_0" index="0" disallow="tram rail_urban rail rail_electric rail_fast ship" speed="11.11" length="37.95" shape="1161.39,1315.63 1163.07,1300.43 1165.58,1289.68 1168.89,1283.40 1173.02,1281.57"/>
        <lane id=":105_12_1" index="1" disallow="tram rail_urban rail rail_electric rail_fast ship" speed="11.11" length="34.90" shape="1161.39,1315.63 1162.97,1301.82 1165.39,1292.08 1168.65,1286.39 1172.74,1284.76"/>
    </edge>
    <edge id=":105_14" function="internal">
        <lane id=":105_14_0" index="0" disallow="tram rail_urban rail rail_electric rail_fast ship" speed="3.65" length="1.44" shape="1161.39,1315.63 1162.27,1314.49"/>
    </edge>
    <edge id=":105_18" function="internal">
        <lane id=":105_18_0" index="0" disallow="tram rail_urban rail rail_electric rail_fast ship" speed="3.65" length="3.23" shape="1162.27,1314.49 1163.10,1314.15 1163.87,1314.61 1164.58,1315.86"/>
    </edge>
    <edge id=":106_0" function="internal">
        <lane id=":106_0_0" index="0" disallow="tram rail_urban rail rail_electric rail_fast ship" speed="8.33" length="4.92" shape="1142.95,1274.52 1147.87,1274.73"/>
        <lane id=":106_0_1" index="1" disallow="tram rail_urban rail rail_electric rail_fast ship" speed="8.33" length="4.92" shape="1142.71,1277.71 1147.62,1277.92"/>
        <lane id=":106_0_2" index="2" disallow="tram rail_urban rail rail_electric rail_fast ship" speed="8.33" length="4.92" shape="1142.46,1280.90 1147.37,1281.11"/>
        <lane id=":106_0_3" index="3" disallow="tram rail_urban rail rail_electric rail_fast ship" speed="8.33" length="4.92" shape="1142.21,1284.10 1147.12,1284.30"/>
    </edge>
    <edge id=":107_0" function="internal">
        <lane id=":107_0_0" index="0" disallow="pedestrian tram rail_urban rail rail_electric rail_fast ship" speed="13.89" length="14.23" shape="341.00,666.32 332.62,677.82"/>
    </edge>
    <edge id=":107_1" function="internal">
        <lane id=":107_1_0" index="0" disallow="pedestrian tram rail_urban rail rail_electric rail_fast ship" speed="10.03" length="9.04" shape="341.00,666.32 337.81,668.69 333.33,668.74 332.78,668.53"/>
    </edge>
    <edge id=":107_2" function="internal">
        <lane id=":107_2_0" index="0" disallow="pedestrian tram rail_urban rail rail_electric rail_fast ship" speed="4.93" length="7.16" shape="341.00,666.32 337.99,667.38 336.04,667.03 335.15,665.26"/>
    </edge>
    <edge id=":107_10" function="internal">
        <lane id=":107_10_0" index="0" disallow="pedestrian tram rail_urban rail rail_electric rail_fast ship" speed="10.03" length="14.03" shape="332.78,668.53 327.54,666.50 320.46,661.95"/>
    </edge>
    <edge id=":107_11" function="internal">
        <lane id=":107_11_0" index="0" disallow="pedestrian tram rail_urban rail rail_electric rail_fast ship" speed="4.93" length="3.20" shape="335.15,665.26 335.33,662.06"/>
    </edge>
    <edge id=":107_3" function="internal">
        <lane id=":107_3_0" index="0" disallow="pedestrian tram rail_urban rail rail_electric rail_fast ship" speed="6.53" length="9.03" shape="322.36,659.37 324.54,660.54 326.57,660.74 328.46,659.97 330.21,658.22"/>
    </edge>
    <edge id=":107_4" function="internal">
        <lane id=":107_4_0" index="0" disallow="pedestrian tram rail_urban rail rail_electric rail_fast ship" speed="10.09" length="23.17" shape="322.36,659.37 328.80,664.80 332.65,669.68 333.92,674.02 332.62,677.82"/>
    </edge>
    <edge id=":107_5" function="internal">
        <lane id=":107_5_0" index="0" disallow="pedestrian tram rail_urban rail rail_electric rail_fast ship" speed="3.65" length="4.67" shape="322.36,659.37 322.85,660.73 322.70,661.61 321.90,662.02 320.46,661.95"/>
    </edge>
    <edge id=":107_6" function="internal">
        <lane id=":107_6_0" index="0" disallow="pedestrian tram rail_urban rail rail_electric rail_fast ship" speed="7.24" length="11.60" shape="324.08,671.56 325.13,669.30 324.88,666.95 323.33,664.49 320.46,661.95"/>
    </edge>
    <edge id=":107_7" function="internal">
        <lane id=":107_7_0" index="0" disallow="pedestrian tram rail_urban rail rail_electric rail_fast ship" speed="13.89" length="14.58" shape="324.08,671.56 332.77,660.14"/>
        <lane id=":107_7_1" index="1" disallow="pedestrian tram rail_urban rail rail_electric rail_fast ship" speed="13.89" length="14.58" shape="324.08,671.56 326.50,669.24 329.19,667.54 332.14,665.48 335.33,662.06"/>
    </edge>
    <edge id=":107_9" function="internal">
        <lane id=":107_9_0" index="0" disallow="pedestrian tram rail_urban rail rail_electric rail_fast ship" speed="5.85" length="12.07" shape="324.08,671.56 328.56,669.92 331.48,670.42 332.83,673.05 332.77,674.43"/>
    </edge>
    <edge id=":107_12" function="internal">
        <lane id=":107_12_0" index="0" disallow="pedestrian tram rail_urban rail rail_electric rail_fast ship" speed="5.85" length="3.39" shape="332.77,674.43 332.62,677.82"/>
    </edge>
    <edge id=":108_0" function="internal">
        <lane id=":108_0_0" index="0" disallow="tram rail_urban rail rail_electric rail_fast ship" speed="10.46" length="20.73" shape="1463.74,891.10 1460.80,886.82 1456.89,884.19 1452.02,883.19 1446.20,883.84"/>
    </edge>
    <edge id=":108_1" function="internal">
        <lane id=":108_1_0" index="0" disallow="tram rail_urban rail rail_electric rail_fast ship" speed="13.89" length="30.88" shape="1463.74,891.10 1459.95,882.14 1457.67,874.91 1455.81,868.51 1453.30,862.06"/>
        <lane id=":108_1_1" index="1" disallow="tram rail_urban rail rail_electric rail_fast ship" speed="13.89" length="30.88" shape="1466.62,889.70 1462.83,880.75 1460.56,873.53 1458.71,867.14 1456.19,860.69"/>
    </edge>
    <edge id=":108_3" function="internal">
        <lane id=":108_3_0" index="0" disallow="tram rail_urban rail rail_electric rail_fast ship" speed="10.77" length="6.63" shape="1469.50,888.31 1467.67,881.94"/>
    </edge>
    <edge id=":108_4" function="internal">
        <lane id=":108_4_0" index="0" disallow="tram rail_urban rail rail_electric rail_fast ship" speed="3.65" length="1.44" shape="1469.50,888.31 1469.70,886.88"/>
    </edge>
    <edge id=":108_18" function="internal">
        <lane id=":108_18_0" index="0" disallow="tram rail_urban rail rail_electric rail_fast ship" speed="10.77" length="20.34" shape="1467.67,881.94 1467.63,881.82 1468.67,876.10 1472.62,871.13 1479.48,866.92"/>
    </edge>
    <edge id=":108_19" function="internal">
        <lane id=":108_19_0" index="0" disallow="tram rail_urban rail rail_electric rail_fast ship" speed="3.65" length="3.23" shape="1469.70,886.88 1470.25,886.17 1471.14,886.18 1472.38,886.91"/>
    </edge>
    <edge id=":108_5" function="internal">
        <lane id=":108_5_0" index="0" disallow="tram rail_urban rail rail_electric rail_fast ship" speed="9.13" length="19.06" shape="1480.82,869.83 1476.44,872.67 1474.05,876.23 1473.66,880.51 1475.26,885.52"/>
    </edge>
    <edge id=":108_6" function="internal">
        <lane id=":108_6_0" index="0" disallow="tram rail_urban rail rail_electric rail_fast ship" speed="13.89" length="37.36" shape="1480.82,869.83 1474.18,872.74 1463.63,877.19 1453.03,881.47 1446.20,883.84"/>
    </edge>
    <edge id=":108_7" function="internal">
        <lane id=":108_7_0" index="0" disallow="tram rail_urban rail rail_electric rail_fast ship" speed="11.44" length="5.61" shape="1480.82,869.83 1475.45,871.42"/>
    </edge>
    <edge id=":108_8" function="internal">
        <lane id=":108_8_0" index="0" disallow="tram rail_urban rail rail_electric rail_fast ship" speed="3.65" length="1.44" shape="1480.82,869.83 1479.40,869.61"/>
    </edge>
    <edge id=":108_20" function="internal">
        <lane id=":108_20_0" index="0" disallow="tram rail_urban rail rail_electric rail_fast ship" speed="11.44" length="24.28" shape="1475.45,871.42 1473.03,872.14 1466.32,871.39 1460.71,867.57 1456.19,860.69"/>
    </edge>
    <edge id=":108_21" function="internal">
        <lane id=":108_21_0" index="0" disallow="tram rail_urban rail rail_electric rail_fast ship" speed="3.65" length="3.23" shape="1479.40,869.61 1478.70,869.05 1478.73,868.15 1479.48,866.92"/>
    </edge>
    <edge id=":108_9" function="internal">
        <lane id=":108_9_0" index="0" disallow="tram rail_urban rail rail_electric rail_fast ship" speed="9.42" length="19.93" shape="1464.87,856.59 1468.27,862.49 1471.84,866.18 1475.57,867.66 1479.48,866.92"/>
    </edge>
    <edge id=":108_10" function="internal">
        <lane id=":108_10_0" index="0" disallow="tram rail_urban rail rail_electric rail_fast ship" speed="13.89" length="30.78" shape="1464.87,856.59 1468.59,865.57 1470.84,872.77 1472.70,879.11 1475.26,885.52"/>
        <lane id=":108_10_1" index="1" disallow="tram rail_urban rail rail_electric rail_fast ship" speed="13.89" length="30.78" shape="1461.98,857.96 1465.70,866.94 1467.95,874.15 1469.82,880.50 1472.38,886.91"/>
    </edge>
    <edge id=":108_12" function="internal">
        <lane id=":108_12_0" index="0" disallow="tram rail_urban rail rail_electric rail_fast ship" speed="11.25" length="9.94" shape="1459.09,859.33 1461.95,868.54 1461.90,868.83"/>
    </edge>
    <edge id=":108_13" function="internal">
        <lane id=":108_13_0" index="0" disallow="tram rail_urban rail rail_electric rail_fast ship" speed="3.65" length="1.44" shape="1459.09,859.33 1458.88,860.75"/>
    </edge>
    <edge id=":108_22" function="internal">
        <lane id=":108_22_0" index="0" disallow="tram rail_urban rail rail_electric rail_fast ship" speed="11.25" length="23.88" shape="1461.90,868.83 1460.73,875.49 1455.46,880.50 1446.20,883.84"/>
    </edge>
    <edge id=":108_23" function="internal">
        <lane id=":108_23_0" index="0" disallow="tram rail_urban rail rail_electric rail_fast ship" speed="3.65" length="3.23" shape="1458.88,860.75 1458.32,861.46 1457.43,861.44 1456.19,860.69"/>
    </edge>
    <edge id=":108_14" function="internal">
        <lane id=":108_14_0" index="0" disallow="tram rail_urban rail rail_electric rail_fast ship" speed="9.62" length="24.39" shape="1445.48,880.72 1451.59,878.25 1454.93,874.31 1455.50,868.92 1453.30,862.06"/>
    </edge>
    <edge id=":108_15" function="internal">
        <lane id=":108_15_0" index="0" disallow="tram rail_urban rail rail_electric rail_fast ship" speed="13.89" length="36.71" shape="1445.48,880.72 1452.21,878.38 1462.60,874.18 1472.94,869.80 1479.48,866.92"/>
    </edge>
    <edge id=":108_16" function="internal">
        <lane id=":108_16_0" index="0" disallow="tram rail_urban rail rail_electric rail_fast ship" speed="12.46" length="3.83" shape="1445.48,880.72 1449.26,880.15"/>
    </edge>
    <edge id=":108_17" function="internal">
        <lane id=":108_17_0" index="0" disallow="tram rail_urban rail rail_electric rail_fast ship" speed="3.65" length="1.33" shape="1445.48,880.72 1446.72,881.19"/>
    </edge>
    <edge id=":108_24" function="internal">
        <lane id=":108_24_0" index="0" disallow="tram rail_urban rail rail_electric rail_fast ship" speed="12.46" length="25.94" shape="1449.26,880.15 1455.22,879.24 1462.95,879.77 1468.67,882.33 1472.38,886.91"/>
    </edge>
    <edge id=":108_25" function="internal">