<?xml version="1.0" encoding="UTF-8"?>

<!-- generated on 2022-08-23 15:22:47 by Eclipse SUMO netconvert Version 1.12.0
<configuration xmlns:xsi="http://www.w3.org/2001/XMLSchema-instance" xsi:noNamespaceSchemaLocation="http://sumo.dlr.de/xsd/netconvertConfiguration.xsd">

    <input>
        <osm-files value="/home/svadlmat/UTC/utc/data/maps/osm/filtered/Chodov_filtered.osm"/>
    </input>

    <output>
        <output-file value="/home/svadlmat/UTC/utc/data/maps/sumo/Chodov.net.xml"/>
    </output>

    <projection>
        <proj.utm value="true"/>
    </projection>

    <processing>
        <numerical-ids.node-start value="0"/>
        <numerical-ids.edge-start value="0"/>
        <geometry.remove value="true"/>
        <roundabouts.guess value="true"/>
    </processing>

    <ramp_guessing>
        <ramps.guess value="true"/>
    </ramp_guessing>

    <edge_removal>
        <keep-edges value="1"/>
        <remove-edges.isolated value="true"/>
    </edge_removal>

    <junctions>
        <junctions.join value="true"/>
    </junctions>

    <report>
        <aggregate-warnings value="5"/>
    </report>

</configuration>
-->

<net version="1.9" junctionCornerDetail="5" limitTurnSpeed="5.50" xmlns:xsi="http://www.w3.org/2001/XMLSchema-instance" xsi:noNamespaceSchemaLocation="http://sumo.dlr.de/xsd/net_file.xsd">

    <location netOffset="-464172.98,-5542009.12" convBoundary="0.00,0.00,1508.67,1026.25" origBoundary="14.498404,50.026590,14.520810,50.038591" projParameter="+proj=utm +zone=33 +ellps=WGS84 +datum=WGS84 +units=m +no_defs"/>

    <type id="highway.bridleway" priority="1" numLanes="1" speed="2.78" allow="pedestrian" oneway="1" width="2.00"/>
    <type id="highway.bus_guideway" priority="1" numLanes="1" speed="27.78" allow="bus" oneway="1"/>
    <type id="highway.cycleway" priority="1" numLanes="1" speed="8.33" allow="bicycle" oneway="0" width="1.00"/>
    <type id="highway.footway" priority="1" numLanes="1" speed="2.78" allow="pedestrian" oneway="1" width="2.00"/>
    <type id="highway.ford" priority="1" numLanes="1" speed="2.78" allow="army" oneway="0"/>
    <type id="highway.living_street" priority="2" numLanes="1" speed="2.78" disallow="tram rail_urban rail rail_electric rail_fast ship" oneway="0"/>
    <type id="highway.motorway" priority="14" numLanes="2" speed="39.44" allow="private emergency authority army vip passenger hov taxi bus coach delivery truck trailer motorcycle evehicle custom1 custom2" oneway="1"/>
    <type id="highway.motorway_link" priority="9" numLanes="1" speed="22.22" allow="private emergency authority army vip passenger hov taxi bus coach delivery truck trailer motorcycle evehicle custom1 custom2" oneway="1"/>
    <type id="highway.path" priority="1" numLanes="1" speed="2.78" allow="pedestrian bicycle" oneway="0" width="2.00"/>
    <type id="highway.pedestrian" priority="1" numLanes="1" speed="2.78" allow="pedestrian" oneway="1" width="2.00"/>
    <type id="highway.primary" priority="12" numLanes="2" speed="27.78" disallow="tram rail_urban rail rail_electric rail_fast ship" oneway="0"/>
    <type id="highway.primary_link" priority="7" numLanes="1" speed="22.22" disallow="tram rail_urban rail rail_electric rail_fast ship" oneway="0"/>
    <type id="highway.raceway" priority="15" numLanes="2" speed="83.33" allow="vip" oneway="0"/>
    <type id="highway.residential" priority="3" numLanes="1" speed="13.89" disallow="tram rail_urban rail rail_electric rail_fast ship" oneway="0"/>
    <type id="highway.secondary" priority="11" numLanes="1" speed="27.78" disallow="tram rail_urban rail rail_electric rail_fast ship" oneway="0"/>
    <type id="highway.secondary_link" priority="6" numLanes="1" speed="22.22" disallow="tram rail_urban rail rail_electric rail_fast ship" oneway="0"/>
    <type id="highway.service" priority="1" numLanes="1" speed="5.56" allow="pedestrian delivery bicycle" oneway="0"/>
    <type id="highway.stairs" priority="1" numLanes="1" speed="1.39" allow="pedestrian" oneway="1" width="2.00"/>
    <type id="highway.step" priority="1" numLanes="1" speed="1.39" allow="pedestrian" oneway="1" width="2.00"/>
    <type id="highway.steps" priority="1" numLanes="1" speed="1.39" allow="pedestrian" oneway="1" width="2.00"/>
    <type id="highway.tertiary" priority="10" numLanes="1" speed="22.22" disallow="tram rail_urban rail rail_electric rail_fast ship" oneway="0"/>
    <type id="highway.tertiary_link" priority="5" numLanes="1" speed="22.22" disallow="tram rail_urban rail rail_electric rail_fast ship" oneway="0"/>
    <type id="highway.track" priority="1" numLanes="1" speed="5.56" allow="pedestrian motorcycle moped bicycle" oneway="0"/>
    <type id="highway.trunk" priority="13" numLanes="2" speed="27.78" disallow="pedestrian bicycle tram rail_urban rail rail_electric rail_fast ship" oneway="0"/>
    <type id="highway.trunk_link" priority="8" numLanes="1" speed="22.22" disallow="pedestrian bicycle tram rail_urban rail rail_electric rail_fast ship" oneway="0"/>
    <type id="highway.unclassified" priority="4" numLanes="1" speed="13.89" disallow="tram rail_urban rail rail_electric rail_fast ship" oneway="0"/>
    <type id="highway.unsurfaced" priority="1" numLanes="1" speed="8.33" disallow="tram rail_urban rail rail_electric rail_fast ship" oneway="0"/>
    <type id="railway.highspeed" priority="21" numLanes="1" speed="69.44" allow="rail_fast" oneway="1"/>
    <type id="railway.light_rail" priority="19" numLanes="1" speed="27.78" allow="rail_urban" oneway="1"/>
    <type id="railway.preserved" priority="16" numLanes="1" speed="27.78" allow="rail" oneway="1"/>
    <type id="railway.rail" priority="20" numLanes="1" speed="44.44" allow="rail" oneway="1"/>
    <type id="railway.subway" priority="18" numLanes="1" speed="27.78" allow="rail_urban" oneway="1"/>
    <type id="railway.tram" priority="17" numLanes="1" speed="13.89" allow="tram" oneway="1"/>

    <edge id=":0_0" function="internal">
        <lane id=":0_0_0" index="0" disallow="tram rail_urban rail rail_electric rail_fast ship" speed="3.65" length="4.67" shape="582.50,762.16 583.59,763.10 583.89,763.95 583.39,764.69 582.10,765.34"/>
    </edge>
    <edge id=":1_0" function="internal">
        <lane id=":1_0_0" index="0" disallow="tram rail_urban rail rail_electric rail_fast ship" speed="3.65" length="4.67" shape="750.83,471.95 751.83,472.99 752.04,473.86 751.48,474.55 750.13,475.07"/>
    </edge>
    <edge id=":10_0" function="internal">
        <lane id=":10_0_0" index="0" disallow="tram rail_urban rail rail_electric rail_fast ship" speed="3.65" length="4.67" shape="437.96,743.38 439.06,744.32 439.36,745.16 438.87,745.91 437.58,746.56"/>
    </edge>
    <edge id=":11_0" function="internal">
        <lane id=":11_0_0" index="0" disallow="tram rail_urban rail rail_electric rail_fast ship" speed="13.89" length="14.71" shape="1034.13,610.70 1020.16,606.10"/>
    </edge>
    <edge id=":11_1" function="internal">
        <lane id=":11_1_0" index="0" disallow="tram rail_urban rail rail_electric rail_fast ship" speed="8.58" length="4.03" shape="1034.13,610.70 1030.77,609.08 1030.57,608.86"/>
    </edge>
    <edge id=":11_2" function="internal">
        <lane id=":11_2_0" index="0" disallow="tram rail_urban rail rail_electric rail_fast ship" speed="3.65" length="1.44" shape="1034.13,610.70 1033.21,609.59"/>
    </edge>
    <edge id=":11_9" function="internal">
        <lane id=":11_9_0" index="0" disallow="tram rail_urban rail rail_electric rail_fast ship" speed="8.58" length="10.63" shape="1030.57,608.86 1028.57,606.61 1027.53,603.30 1027.66,599.15"/>
    </edge>
    <edge id=":11_10" function="internal">
        <lane id=":11_10_0" index="0" disallow="tram rail_urban rail rail_electric rail_fast ship" speed="3.65" length="3.23" shape="1033.21,609.59 1033.06,608.71 1033.68,608.06 1035.06,607.64"/>
    </edge>
    <edge id=":11_3" function="internal">
        <lane id=":11_3_0" index="0" disallow="tram rail_urban rail rail_electric rail_fast ship" speed="7.21" length="10.08" shape="1030.83,599.57 1030.72,602.51 1031.39,604.83 1032.84,606.54 1035.06,607.64"/>
    </edge>
    <edge id=":11_4" function="internal">
        <lane id=":11_4_0" index="0" disallow="tram rail_urban rail rail_electric rail_fast ship" speed="7.71" length="14.96" shape="1030.83,599.57 1029.60,603.64 1027.41,606.08 1024.26,606.90 1020.16,606.10"/>
    </edge>
    <edge id=":11_5" function="internal">
        <lane id=":11_5_0" index="0" disallow="tram rail_urban rail rail_electric rail_fast ship" speed="3.65" length="4.67" shape="1030.83,599.57 1029.88,600.66 1029.03,600.95 1028.29,600.44 1027.66,599.15"/>
    </edge>
    <edge id=":11_6" function="internal">
        <lane id=":11_6_0" index="0" disallow="tram rail_urban rail rail_electric rail_fast ship" speed="6.13" length="9.02" shape="1021.22,603.08 1023.70,603.56 1025.60,603.07 1026.92,601.59 1027.66,599.15"/>
    </edge>
    <edge id=":11_7" function="internal">
        <lane id=":11_7_0" index="0" disallow="tram rail_urban rail rail_electric rail_fast ship" speed="13.89" length="14.58" shape="1021.22,603.08 1035.06,607.64"/>
    </edge>
    <edge id=":11_8" function="internal">
        <lane id=":11_8_0" index="0" disallow="tram rail_urban rail rail_electric rail_fast ship" speed="3.65" length="1.44" shape="1021.22,603.08 1022.09,604.23"/>
    </edge>
    <edge id=":11_11" function="internal">
        <lane id=":11_11_0" index="0" disallow="tram rail_urban rail rail_electric rail_fast ship" speed="3.65" length="3.23" shape="1022.09,604.23 1022.20,605.12 1021.55,605.74 1020.16,606.10"/>
    </edge>
    <edge id=":12_0" function="internal">
        <lane id=":12_0_0" index="0" disallow="tram rail_urban rail rail_electric rail_fast ship" speed="6.47" length="9.03" shape="1058.21,459.36 1055.73,459.29 1053.83,460.03 1052.53,461.59 1051.80,463.97"/>
    </edge>
    <edge id=":12_1" function="internal">
        <lane id=":12_1_0" index="0" disallow="tram rail_urban rail rail_electric rail_fast ship" speed="13.89" length="14.40" shape="1058.21,459.36 1044.02,456.91"/>
    </edge>
    <edge id=":12_2" function="internal">
        <lane id=":12_2_0" index="0" disallow="tram rail_urban rail rail_electric rail_fast ship" speed="3.65" length="1.44" shape="1058.21,459.36 1057.16,458.37"/>
    </edge>
    <edge id=":12_9" function="internal">
        <lane id=":12_9_0" index="0" disallow="tram rail_urban rail rail_electric rail_fast ship" speed="3.65" length="3.23" shape="1057.16,458.37 1056.91,457.51 1057.44,456.80 1058.76,456.21"/>
    </edge>
    <edge id=":12_3" function="internal">
        <lane id=":12_3_0" index="0" disallow="tram rail_urban rail rail_electric rail_fast ship" speed="13.89" length="14.41" shape="1044.56,453.76 1058.76,456.21"/>
    </edge>
    <edge id=":12_4" function="internal">
        <lane id=":12_4_0" index="0" disallow="tram rail_urban rail rail_electric rail_fast ship" speed="8.06" length="4.04" shape="1044.56,453.76 1048.24,454.95 1048.37,455.07"/>
    </edge>
    <edge id=":12_5" function="internal">
        <lane id=":12_5_0" index="0" disallow="tram rail_urban rail rail_electric rail_fast ship" speed="3.65" length="1.44" shape="1044.56,453.76 1045.61,454.75"/>
    </edge>
    <edge id=":12_10" function="internal">
        <lane id=":12_10_0" index="0" disallow="tram rail_urban rail rail_electric rail_fast ship" speed="8.06" length="10.18" shape="1048.37,455.07 1050.67,457.05 1051.86,460.05 1051.80,463.97"/>
    </edge>
    <edge id=":12_11" function="internal">
        <lane id=":12_11_0" index="0" disallow="tram rail_urban rail rail_electric rail_fast ship" speed="3.65" length="3.23" shape="1045.61,454.75 1045.87,455.60 1045.34,456.32 1044.02,456.91"/>
    </edge>
    <edge id=":12_6" function="internal">
        <lane id=":12_6_0" index="0" disallow="tram rail_urban rail rail_electric rail_fast ship" speed="6.58" length="9.12" shape="1048.64,463.48 1048.68,460.96 1047.92,459.02 1046.37,457.67 1044.02,456.91"/>
    </edge>
    <edge id=":12_7" function="internal">
        <lane id=":12_7_0" index="0" disallow="tram rail_urban rail rail_electric rail_fast ship" speed="7.97" length="14.26" shape="1048.64,463.48 1049.78,459.73 1051.85,457.27 1054.84,456.10 1058.76,456.21"/>
    </edge>
    <edge id=":12_8" function="internal">
        <lane id=":12_8_0" index="0" disallow="tram rail_urban rail rail_electric rail_fast ship" speed="3.65" length="4.67" shape="1048.64,463.48 1049.61,462.41 1050.47,462.14 1051.20,462.66 1051.80,463.97"/>
    </edge>
    <edge id=":13_0" function="internal">
        <lane id=":13_0_0" index="0" disallow="tram rail_urban rail rail_electric rail_fast ship" speed="3.65" length="4.67" shape="1114.72,465.93 1115.77,466.93 1116.03,467.78 1115.49,468.50 1114.17,469.09"/>
    </edge>
    <edge id=":14_0" function="internal">
        <lane id=":14_0_0" index="0" disallow="tram rail_urban rail rail_electric rail_fast ship" speed="3.65" length="4.67" shape="1012.59,451.49 1011.55,450.50 1011.29,449.64 1011.82,448.92 1013.14,448.34"/>
    </edge>
    <edge id=":15_0" function="internal">
        <lane id=":15_0_0" index="0" disallow="tram rail_urban rail rail_electric rail_fast ship" speed="13.89" length="14.08" shape="744.44,535.78 730.37,535.23"/>
    </edge>
    <edge id=":15_1" function="internal">
        <lane id=":15_1_0" index="0" disallow="tram rail_urban rail rail_electric rail_fast ship" speed="7.46" length="4.75" shape="744.44,535.78 739.77,534.91"/>
    </edge>
    <edge id=":15_2" function="internal">
        <lane id=":15_2_0" index="0" disallow="tram rail_urban rail rail_electric rail_fast ship" speed="3.65" length="1.44" shape="744.44,535.78 743.30,534.90"/>
    </edge>
    <edge id=":15_9" function="internal">
        <lane id=":15_9_0" index="0" disallow="tram rail_urban rail rail_electric rail_fast ship" speed="7.46" length="10.24" shape="739.77,534.91 736.91,533.08 735.85,530.27 736.59,526.50"/>
    </edge>
    <edge id=":15_10" function="internal">
        <lane id=":15_10_0" index="0" disallow="tram rail_urban rail rail_electric rail_fast ship" speed="3.65" length="3.23" shape="743.30,534.90 742.95,534.08 743.41,533.30 744.66,532.59"/>
    </edge>
    <edge id=":15_3" function="internal">
        <lane id=":15_3_0" index="0" disallow="tram rail_urban rail rail_electric rail_fast ship" speed="6.02" length="9.29" shape="739.92,526.74 739.44,529.12 740.07,530.89 741.81,532.05 744.66,532.59"/>
    </edge>
    <edge id=":15_4" function="internal">
        <lane id=":15_4_0" index="0" disallow="tram rail_urban rail rail_electric rail_fast ship" speed="9.12" length="13.62" shape="739.92,526.74 738.09,530.48 735.89,533.13 733.32,534.72 730.37,535.23"/>
    </edge>
    <edge id=":15_5" function="internal">
        <lane id=":15_5_0" index="0" disallow="tram rail_urban rail rail_electric rail_fast ship" speed="3.71" length="4.89" shape="739.92,526.74 739.00,527.94 738.14,528.29 737.33,527.82 736.59,526.50"/>
    </edge>
    <edge id=":15_6" function="internal">
        <lane id=":15_6_0" index="0" disallow="tram rail_urban rail rail_electric rail_fast ship" speed="7.45" length="8.84" shape="730.40,532.03 732.30,531.69 733.97,530.66 735.40,528.93 736.59,526.50"/>
    </edge>
    <edge id=":15_7" function="internal">
        <lane id=":15_7_0" index="0" disallow="tram rail_urban rail rail_electric rail_fast ship" speed="13.89" length="14.27" shape="730.40,532.03 744.66,532.59"/>
    </edge>
    <edge id=":15_8" function="internal">
        <lane id=":15_8_0" index="0" disallow="tram rail_urban rail rail_electric rail_fast ship" speed="3.65" length="1.44" shape="730.40,532.03 731.59,532.84"/>
    </edge>
    <edge id=":15_11" function="internal">
        <lane id=":15_11_0" index="0" disallow="tram rail_urban rail rail_electric rail_fast ship" speed="3.65" length="3.23" shape="731.59,532.84 731.99,533.64 731.58,534.44 730.37,535.23"/>
    </edge>
    <edge id=":16_0" function="internal">
        <lane id=":16_0_0" index="0" disallow="tram rail_urban rail rail_electric rail_fast ship" speed="13.89" length="14.69" shape="781.39,419.06 778.35,433.44"/>
    </edge>
    <edge id=":16_1" function="internal">
        <lane id=":16_1_0" index="0" disallow="tram rail_urban rail rail_electric rail_fast ship" speed="7.89" length="4.35" shape="781.39,419.06 780.13,422.86 779.89,423.12"/>
    </edge>
    <edge id=":16_2" function="internal">
        <lane id=":16_2_0" index="0" disallow="tram rail_urban rail rail_electric rail_fast ship" speed="3.65" length="1.44" shape="781.39,419.06 780.39,420.10"/>
    </edge>
    <edge id=":16_9" function="internal">
        <lane id=":16_9_0" index="0" disallow="tram rail_urban rail rail_electric rail_fast ship" speed="7.89" length="10.09" shape="779.89,423.12 777.97,425.25 774.89,426.25 770.92,425.84"/>
    </edge>
    <edge id=":16_10" function="internal">
        <lane id=":16_10_0" index="0" disallow="tram rail_urban rail rail_electric rail_fast ship" speed="3.65" length="3.23" shape="780.39,420.10 779.53,420.36 778.82,419.82 778.24,418.50"/>
    </edge>
    <edge id=":16_3" function="internal">
        <lane id=":16_3_0" index="0" disallow="tram rail_urban rail rail_electric rail_fast ship" speed="6.37" length="9.04" shape="771.69,422.74 774.18,422.99 776.10,422.37 777.45,420.87 778.24,418.50"/>
    </edge>
    <edge id=":16_4" function="internal">
        <lane id=":16_4_0" index="0" disallow="tram rail_urban rail rail_electric rail_fast ship" speed="8.06" length="14.36" shape="771.69,422.74 775.39,424.22 777.73,426.50 778.72,429.57 778.35,433.44"/>
    </edge>
    <edge id=":16_5" function="internal">
        <lane id=":16_5_0" index="0" disallow="tram rail_urban rail rail_electric rail_fast ship" speed="3.65" length="4.67" shape="771.69,422.74 772.66,423.80 772.86,424.68 772.28,425.36 770.92,425.84"/>
    </edge>
    <edge id=":16_6" function="internal">
        <lane id=":16_6_0" index="0" disallow="tram rail_urban rail rail_electric rail_fast ship" speed="6.58" length="9.22" shape="775.25,432.68 775.47,430.22 774.83,428.26 773.31,426.80 770.92,425.84"/>
    </edge>
    <edge id=":16_7" function="internal">
        <lane id=":16_7_0" index="0" disallow="tram rail_urban rail rail_electric rail_fast ship" speed="13.89" length="14.50" shape="775.25,432.68 778.24,418.50"/>
    </edge>
    <edge id=":16_8" function="internal">
        <lane id=":16_8_0" index="0" disallow="tram rail_urban rail rail_electric rail_fast ship" speed="3.65" length="1.44" shape="775.25,432.68 776.31,431.71"/>
    </edge>
    <edge id=":16_11" function="internal">
        <lane id=":16_11_0" index="0" disallow="tram rail_urban rail rail_electric rail_fast ship" speed="3.65" length="3.23" shape="776.31,431.71 777.18,431.51 777.86,432.08 778.35,433.44"/>
    </edge>
    <edge id=":17_0" function="internal">
        <lane id=":17_0_0" index="0" disallow="tram rail_urban rail rail_electric rail_fast ship" speed="3.65" length="4.67" shape="784.78,382.19 785.78,381.15 786.64,380.90 787.35,381.44 787.93,382.76"/>
    </edge>
    <edge id=":18_0" function="internal">
        <lane id=":18_0_0" index="0" disallow="tram rail_urban rail rail_electric rail_fast ship" speed="13.89" length="14.64" shape="577.85,443.99 575.26,429.58"/>
    </edge>
    <edge id=":18_1" function="internal">
        <lane id=":18_1_0" index="0" disallow="tram rail_urban rail rail_electric rail_fast ship" speed="7.50" length="4.39" shape="577.85,443.99 577.78,439.59"/>
    </edge>
    <edge id=":18_2" function="internal">
        <lane id=":18_2_0" index="0" disallow="tram rail_urban rail rail_electric rail_fast ship" speed="3.65" length="1.44" shape="577.85,443.99 578.46,442.68"/>
    </edge>
    <edge id=":18_9" function="internal">
        <lane id=":18_9_0" index="0" disallow="tram rail_urban rail rail_electric rail_fast ship" speed="7.50" length="11.47" shape="577.78,439.59 577.78,439.37 579.27,436.41 582.31,435.11 586.92,435.47"/>
    </edge>
    <edge id=":18_10" function="internal">
        <lane id=":18_10_0" index="0" disallow="tram rail_urban rail rail_electric rail_fast ship" speed="3.65" length="3.23" shape="578.46,442.68 579.18,442.16 580.04,442.43 581.01,443.49"/>
    </edge>
    <edge id=":18_3" function="internal">
        <lane id=":18_3_0" index="0" disallow="tram rail_urban rail rail_electric rail_fast ship" speed="5.85" length="9.12" shape="586.23,438.59 583.58,438.39 581.83,439.13 580.97,440.84 581.01,443.49"/>
    </edge>
    <edge id=":18_4" function="internal">
        <lane id=":18_4_0" index="0" disallow="tram rail_urban rail rail_electric rail_fast ship" speed="9.90" length="15.04" shape="586.23,438.59 581.97,437.24 578.73,435.29 576.49,432.73 575.26,429.58"/>
    </edge>
    <edge id=":18_5" function="internal">
        <lane id=":18_5_0" index="0" disallow="tram rail_urban rail rail_electric rail_fast ship" speed="3.65" length="4.67" shape="586.23,438.59 585.23,437.55 585.01,436.69 585.57,435.99 586.92,435.47"/>
    </edge>
    <edge id=":18_6" function="internal">
        <lane id=":18_6_0" index="0" disallow="tram rail_urban rail rail_electric rail_fast ship" speed="8.67" length="11.38" shape="578.38,428.90 579.30,431.15 581.03,433.00 583.57,434.44 586.92,435.47"/>
    </edge>
    <edge id=":18_7" function="internal">
        <lane id=":18_7_0" index="0" disallow="tram rail_urban rail rail_electric rail_fast ship" speed="13.89" length="14.83" shape="578.38,428.90 581.01,443.49"/>
    </edge>
    <edge id=":18_8" function="internal">
        <lane id=":18_8_0" index="0" disallow="tram rail_urban rail rail_electric rail_fast ship" speed="3.65" length="1.44" shape="578.38,428.90 577.86,430.24"/>
    </edge>
    <edge id=":18_11" function="internal">
        <lane id=":18_11_0" index="0" disallow="tram rail_urban rail rail_electric rail_fast ship" speed="3.65" length="3.23" shape="577.86,430.24 577.16,430.80 576.29,430.58 575.26,429.58"/>
    </edge>
    <edge id=":19_0" function="internal">
        <lane id=":19_0_0" index="0" disallow="tram rail_urban rail rail_electric rail_fast ship" speed="13.89" length="14.39" shape="668.82,456.86 654.77,453.74"/>
    </edge>
    <edge id=":19_1" function="internal">
        <lane id=":19_1_0" index="0" disallow="tram rail_urban rail rail_electric rail_fast ship" speed="8.02" length="4.05" shape="668.82,456.86 665.19,455.48 665.07,455.37"/>
    </edge>
    <edge id=":19_2" function="internal">
        <lane id=":19_2_0" index="0" disallow="tram rail_urban rail rail_electric rail_fast ship" speed="3.65" length="1.44" shape="668.82,456.86 667.82,455.82"/>
    </edge>
    <edge id=":19_9" function="internal">
        <lane id=":19_9_0" index="0" disallow="tram rail_urban rail rail_electric rail_fast ship" speed="8.02" length="10.15" shape="665.07,455.37 662.86,453.27 661.84,450.23 662.13,446.34"/>
    </edge>
    <edge id=":19_10" function="internal">
        <lane id=":19_10_0" index="0" disallow="tram rail_urban rail rail_electric rail_fast ship" speed="3.65" length="3.23" shape="667.82,455.82 667.60,454.95 668.17,454.26 669.52,453.74"/>
    </edge>
    <edge id=":19_3" function="internal">
        <lane id=":19_3_0" index="0" disallow="tram rail_urban rail rail_electric rail_fast ship" speed="6.53" length="9.05" shape="665.26,447.02 665.07,449.50 665.72,451.45 667.20,452.86 669.52,453.74"/>
    </edge>
    <edge id=":19_4" function="internal">
        <lane id=":19_4_0" index="0" disallow="tram rail_urban rail rail_electric rail_fast ship" speed="8.00" length="14.20" shape="665.26,447.02 663.90,450.67 661.70,453.01 658.66,454.03 654.77,453.74"/>
    </edge>
    <edge id=":19_5" function="internal">
        <lane id=":19_5_0" index="0" disallow="tram rail_urban rail rail_electric rail_fast ship" speed="3.65" length="4.67" shape="665.26,447.02 664.22,448.03 663.35,448.25 662.66,447.69 662.13,446.34"/>
    </edge>
    <edge id=":19_6" function="internal">
        <lane id=":19_6_0" index="0" disallow="tram rail_urban rail rail_electric rail_fast ship" speed="6.50" length="9.03" shape="655.46,450.61 657.93,450.80 659.87,450.15 661.26,448.66 662.13,446.34"/>
    </edge>
    <edge id=":19_7" function="internal">
        <lane id=":19_7_0" index="0" disallow="tram rail_urban rail rail_electric rail_fast ship" speed="13.89" length="14.40" shape="655.46,450.61 669.52,453.74"/>
    </edge>
    <edge id=":19_8" function="internal">
        <lane id=":19_8_0" index="0" disallow="tram rail_urban rail rail_electric rail_fast ship" speed="3.65" length="1.44" shape="655.46,450.61 656.46,451.65"/>
    </edge>
    <edge id=":19_11" function="internal">
        <lane id=":19_11_0" index="0" disallow="tram rail_urban rail rail_electric rail_fast ship" speed="3.65" length="3.23" shape="656.46,451.65 656.68,452.52 656.12,453.21 654.77,453.74"/>
    </edge>
    <edge id=":2_0" function="internal">
        <lane id=":2_0_0" index="0" disallow="tram rail_urban rail rail_electric rail_fast ship" speed="13.89" length="0.28" shape="542.41,289.49 542.35,289.22"/>
    </edge>
    <edge id=":2_1" function="internal">
        <lane id=":2_1_0" index="0" disallow="tram rail_urban rail rail_electric rail_fast ship" speed="13.89" length="0.35" shape="545.42,288.36 545.51,288.70"/>
    </edge>
    <edge id=":20_0" function="internal">
        <lane id=":20_0_0" index="0" disallow="tram rail_urban rail rail_electric rail_fast ship" speed="6.36" length="9.04" shape="681.41,399.63 678.94,399.27 676.99,399.82 675.59,401.26 674.71,403.60"/>
    </edge>
    <edge id=":20_1" function="internal">
        <lane id=":20_1_0" index="0" disallow="tram rail_urban rail rail_electric rail_fast ship" speed="13.89" length="14.41" shape="681.41,399.63 667.61,395.51"/>
    </edge>
    <edge id=":20_2" function="internal">
        <lane id=":20_2_0" index="0" disallow="tram rail_urban rail rail_electric rail_fast ship" speed="3.65" length="1.44" shape="681.41,399.63 680.49,398.52"/>
    </edge>
    <edge id=":20_9" function="internal">
        <lane id=":20_9_0" index="0" disallow="tram rail_urban rail rail_electric rail_fast ship" speed="3.65" length="3.23" shape="680.49,398.52 680.33,397.64 680.94,396.99 682.32,396.56"/>
    </edge>
    <edge id=":20_3" function="internal">
        <lane id=":20_3_0" index="0" disallow="tram rail_urban rail rail_electric rail_fast ship" speed="13.89" length="14.38" shape="668.53,392.45 682.32,396.56"/>
    </edge>
    <edge id=":20_4" function="internal">
        <lane id=":20_4_0" index="0" disallow="tram rail_urban rail rail_electric rail_fast ship" speed="8.27" length="3.92" shape="668.53,392.45 671.95,394.06 672.04,394.17"/>
    </edge>
    <edge id=":20_5" function="internal">
        <lane id=":20_5_0" index="0" disallow="tram rail_urban rail rail_electric rail_fast ship" speed="3.65" length="1.44" shape="668.53,392.45 669.45,393.56"/>
    </edge>
    <edge id=":20_10" function="internal">
        <lane id=":20_10_0" index="0" disallow="tram rail_urban rail rail_electric rail_fast ship" speed="8.27" length="10.38" shape="672.04,394.17 674.11,396.46 675.04,399.64 674.71,403.60"/>
    </edge>
    <edge id=":20_11" function="internal">
        <lane id=":20_11_0" index="0" disallow="tram rail_urban rail rail_electric rail_fast ship" speed="3.65" length="3.23" shape="669.45,393.56 669.60,394.44 668.99,395.09 667.61,395.51"/>
    </edge>
    <edge id=":20_6" function="internal">
        <lane id=":20_6_0" index="0" disallow="tram rail_urban rail rail_electric rail_fast ship" speed="6.82" length="9.43" shape="671.58,402.92 671.81,400.28 671.22,398.16 669.82,396.57 667.61,395.51"/>
    </edge>
    <edge id=":20_7" function="internal">
        <lane id=":20_7_0" index="0" disallow="tram rail_urban rail rail_electric rail_fast ship" speed="7.88" length="14.47" shape="671.58,402.92 672.98,399.17 675.24,396.86 678.35,395.99 682.32,396.56"/>
    </edge>
    <edge id=":20_8" function="internal">
        <lane id=":20_8_0" index="0" disallow="tram rail_urban rail rail_electric rail_fast ship" speed="3.65" length="4.67" shape="671.58,402.92 672.62,401.92 673.49,401.70 674.18,402.26 674.71,403.60"/>
    </edge>
    <edge id=":21_0" function="internal">
        <lane id=":21_0_0" index="0" disallow="tram rail_urban rail rail_electric rail_fast ship" speed="3.65" length="4.67" shape="600.56,376.61 599.62,375.52 599.45,374.64 600.06,373.98 601.43,373.54"/>
    </edge>
    <edge id=":22_0" function="internal">
        <lane id=":22_0_0" index="0" disallow="tram rail_urban rail rail_electric rail_fast ship" speed="13.89" length="8.20" shape="666.62,225.59 664.22,225.50 662.56,225.83 660.90,226.17 658.50,226.12"/>
        <lane id=":22_0_1" index="1" disallow="tram rail_urban rail rail_electric rail_fast ship" speed="13.89" length="8.20" shape="666.62,225.59 664.28,225.01 662.76,224.24 661.24,223.49 658.90,222.95"/>
    </edge>
    <edge id=":23_0" function="internal">
        <lane id=":23_0_0" index="0" disallow="tram rail_urban rail rail_electric rail_fast ship" speed="6.58" length="8.58" shape="348.24,476.50 345.98,476.22 344.09,476.73 342.59,478.02 341.46,480.09"/>
    </edge>
    <edge id=":23_1" function="internal">
        <lane id=":23_1_0" index="0" disallow="tram rail_urban rail rail_electric rail_fast ship" speed="13.89" length="10.37" shape="348.24,476.50 338.33,473.43"/>
    </edge>
    <edge id=":23_2" function="internal">
        <lane id=":23_2_0" index="0" disallow="tram rail_urban rail rail_electric rail_fast ship" speed="3.65" length="1.44" shape="348.24,476.50 347.30,475.41"/>
    </edge>
    <edge id=":23_6" function="internal">
        <lane id=":23_6_0" index="0" disallow="tram rail_urban rail rail_electric rail_fast ship" speed="3.65" length="3.23" shape="347.30,475.41 347.12,474.53 347.72,473.86 349.08,473.41"/>
    </edge>
    <edge id=":23_3" function="internal">
        <lane id=":23_3_0" index="0" disallow="tram rail_urban rail rail_electric rail_fast ship" speed="13.89" length="10.16" shape="339.37,470.40 349.08,473.41"/>
    </edge>