<?xml version='1.0' encoding='utf-8'?>
<net xmlns:xsi="http://www.w3.org/2001/XMLSchema-instance" version="1.16" junctionCornerDetail="5" lefthand="true" limitTurnSpeed="5.50" xsi:noNamespaceSchemaLocation="http://sumo.dlr.de/xsd/net_file.xsd">
	<location netOffset="-677749.85,-5911444.78" convBoundary="3069.23,1767.05,4485.46,2895.52" origBoundary="-6.368224,53.318846,-6.186539,53.396212" projParameter="+proj=utm +zone=29 +ellps=WGS84 +datum=WGS84 +units=m +no_defs" />
	<type id="highway.residential" priority="3" numLanes="1" speed="13.89" disallow="tram rail_urban rail rail_electric ship" oneway="0" />
	<type id="highway.secondary" priority="11" numLanes="2" speed="27.78" disallow="tram rail_urban rail rail_electric ship" oneway="0" />
	<type id="highway.secondary_link" priority="6" numLanes="1" speed="22.22" disallow="tram rail_urban rail rail_electric ship" oneway="0" />
	<type id="highway.tertiary" priority="10" numLanes="1" speed="22.22" disallow="tram rail_urban rail rail_electric ship" oneway="0" />
	<type id="highway.tertiary_link" priority="5" numLanes="1" speed="22.22" disallow="tram rail_urban rail rail_electric ship" oneway="0" />
	<type id="highway.unclassified" priority="4" numLanes="1" speed="13.89" disallow="tram rail_urban rail rail_electric ship" oneway="0" />
	<edge id=":12639663_0" function="internal">
		<lane id=":12639663_0_0" index="0" disallow="tram rail_urban rail rail_electric rail_fast ship" speed="11.11" length="19.70" shape="3821.67,2724.65 3822.03,2730.95 3824.01,2735.80 3826.07,2739.76 3826.61,2743.41" />
	</edge>
	<edge id=":12639663_1" function="internal">
		<lane id=":12639663_1_0" index="0" disallow="tram rail_urban rail rail_electric rail_fast ship" speed="8.25" length="15.24" shape="3824.84,2725.09 3824.94,2729.00 3826.44,2731.98 3829.34,2734.03 3833.64,2735.15" />
		<lane id=":12639663_1_1" index="1" disallow="tram rail_urban rail rail_electric rail_fast ship" speed="6.82" length="10.06" shape="3828.01,2725.52 3828.10,2728.01 3829.14,2729.92 3831.12,2731.24 3834.05,2731.97" />
	</edge>
	<edge id=":12639663_3" function="internal">
		<lane id=":12639663_3_0" index="0" disallow="tram rail_urban rail rail_electric rail_fast ship" speed="7.70" length="14.71" shape="3815.15,2737.22 3820.60,2737.77 3824.32,2738.98 3826.33,2740.86 3826.61,2743.41" />
	</edge>
	<edge id=":12639663_4" function="internal">
		<lane id=":12639663_4_0" index="0" disallow="tram rail_urban rail rail_electric rail_fast ship" speed="13.89" length="18.43" shape="3815.15,2737.22 3820.53,2737.36 3824.21,2737.44 3827.88,2737.69 3833.22,2738.32" />
		<lane id=":12639663_4_1" index="1" disallow="tram rail_urban rail rail_electric rail_fast ship" speed="13.89" length="18.43" shape="3815.25,2734.03 3820.73,2734.16 3824.47,2734.25 3828.21,2734.51 3833.64,2735.15" />
		<lane id=":12639663_4_2" index="2" disallow="tram rail_urban rail rail_electric rail_fast ship" speed="13.89" length="18.43" shape="3815.36,2730.83 3820.92,2730.97 3824.73,2731.06 3828.53,2731.32 3834.05,2731.97" />
	</edge>
	<edge id=":12639664_0" function="internal">
		<lane id=":12639664_0_0" index="0" disallow="tram rail_urban rail rail_electric rail_fast ship" speed="10.47" length="18.63" shape="3836.15,2661.17 3834.43,2665.81 3831.71,2669.29 3827.98,2671.60 3823.24,2672.74" />
		<lane id=":12639664_0_1" index="1" disallow="tram rail_urban rail rail_electric rail_fast ship" speed="11.01" length="20.72" shape="3836.15,2661.17 3834.17,2667.25 3831.41,2671.74 3827.88,2674.63 3823.58,2675.93" />
	</edge>
	<edge id=":12639664_2" function="internal">
		<lane id=":12639664_2_0" index="0" disallow="tram rail_urban rail rail_electric rail_fast ship" speed="13.89" length="20.75" shape="3836.15,2661.17 3834.05,2666.98 3831.61,2670.64 3829.35,2674.34 3827.78,2680.25" />
		<lane id=":12639664_2_1" index="1" disallow="tram rail_urban rail rail_electric rail_fast ship" speed="13.89" length="20.75" shape="3839.27,2661.89 3837.18,2667.62 3834.76,2671.23 3832.51,2674.86 3830.95,2680.69" />
		<lane id=":12639664_2_2" index="2" disallow="tram rail_urban rail rail_electric rail_fast ship" speed="13.89" length="20.75" shape="3842.39,2662.61 3840.32,2668.26 3837.91,2671.81 3835.67,2675.38 3834.12,2681.12" />
	</edge>
	<edge id=":12639664_5" function="internal">
		<lane id=":12639664_5_0" index="0" disallow="tram rail_urban rail rail_electric rail_fast ship" speed="13.89" length="22.37" shape="3845.87,2667.76 3839.09,2667.13 3834.41,2667.55 3829.72,2668.52 3822.91,2669.56" />
		<lane id=":12639664_5_1" index="1" disallow="tram rail_urban rail rail_electric rail_fast ship" speed="13.89" length="22.37" shape="3845.38,2670.92 3838.85,2670.33 3834.34,2670.76 3829.82,2671.73 3823.24,2672.74" />
		<lane id=":12639664_5_2" index="2" disallow="tram rail_urban rail rail_electric rail_fast ship" speed="13.89" length="22.37" shape="3844.90,2674.09 3838.60,2673.53 3834.27,2673.97 3829.91,2674.93 3823.58,2675.93" />
	</edge>
	<edge id=":12639664_8" function="internal">
		<lane id=":12639664_8_0" index="0" disallow="tram rail_urban rail rail_electric rail_fast ship" speed="8.94" length="18.18" shape="3844.41,2677.25 3837.42,2676.52 3832.31,2676.78 3829.10,2678.02 3827.78,2680.25" />
		<lane id=":12639664_8_1" index="1" disallow="tram rail_urban rail rail_electric rail_fast ship" speed="8.22" length="15.20" shape="3844.41,2677.25 3838.80,2676.73 3834.69,2677.13 3832.07,2678.45 3830.95,2680.69" />
		<lane id=":12639664_8_2" index="2" disallow="tram rail_urban rail rail_electric rail_fast ship" speed="7.45" length="12.29" shape="3844.41,2677.25 3840.19,2676.94 3837.06,2677.49 3835.04,2678.88 3834.12,2681.12" />
	</edge>
	<edge id=":130235976_0" function="internal">
		<lane id=":130235976_0_0" index="0" disallow="tram rail_urban rail rail_electric rail_fast ship" speed="6.00" length="9.08" shape="3508.06,2865.06 3505.66,2866.04 3503.72,2865.90 3502.24,2864.63 3501.23,2862.24" />
	</edge>
	<edge id=":130236108_0" function="internal">
		<lane id=":130236108_0_0" index="0" disallow="tram rail_urban rail rail_electric rail_fast ship" speed="13.89" length="11.93" shape="3623.29,2833.82 3622.72,2830.59 3622.19,2827.95 3621.57,2825.33 3620.71,2822.17" />
	</edge>
	<edge id=":130236108_1" function="internal">
		<lane id=":130236108_1_0" index="0" disallow="tram rail_urban rail rail_electric rail_fast ship" speed="7.86" length="2.63" shape="3623.29,2833.82 3622.18,2831.43" />
	</edge>
	<edge id=":130236108_5" function="internal">
		<lane id=":130236108_5_0" index="0" disallow="tram rail_urban rail rail_electric rail_fast ship" speed="7.86" length="12.27" shape="3622.18,2831.43 3622.08,2831.23 3619.55,2829.87 3615.69,2829.75 3610.50,2830.86" />
	</edge>
	<edge id=":130236108_2" function="internal">
		<lane id=":130236108_2_0" index="0" disallow="tram rail_urban rail rail_electric rail_fast ship" speed="6.58" length="9.15" shape="3614.55,2823.90 3614.86,2826.33 3614.29,2828.30 3612.84,2829.81 3610.50,2830.86" />
	</edge>
	<edge id=":130236108_3" function="internal">
		<lane id=":130236108_3_0" index="0" disallow="tram rail_urban rail rail_electric rail_fast ship" speed="13.89" length="11.44" shape="3614.55,2823.90 3615.44,2827.13 3615.98,2829.35 3616.42,2831.60 3616.98,2834.90" />
		<lane id=":130236108_3_1" index="1" disallow="tram rail_urban rail rail_electric rail_fast ship" speed="13.89" length="11.44" shape="3617.63,2823.04 3618.55,2826.36 3619.11,2828.65 3619.55,2830.96 3620.14,2834.36" />
	</edge>
	<edge id=":1306049161_0" function="internal">
		<lane id=":1306049161_0_0" index="0" disallow="tram rail_urban rail rail_electric rail_fast ship" speed="3.65" length="4.67" shape="3809.86,2154.52 3809.32,2153.18 3808.62,2152.62 3807.76,2152.85 3806.72,2153.86" />
	</edge>
	<edge id=":1306049162_0" function="internal">
		<lane id=":1306049162_0_0" index="0" disallow="tram rail_urban rail rail_electric rail_fast ship" speed="6.39" length="8.95" shape="3791.23,2183.94 3790.41,2186.25 3789.04,2187.70 3787.12,2188.30 3784.64,2188.05" />
	</edge>
	<edge id=":1306049162_1" function="internal">
		<lane id=":1306049162_1_0" index="0" disallow="tram rail_urban rail rail_electric rail_fast ship" speed="8.33" length="14.25" shape="3791.23,2183.94 3788.70,2197.97" />
	</edge>
	<edge id=":1306049162_2" function="internal">
		<lane id=":1306049162_2_0" index="0" disallow="tram rail_urban rail rail_electric rail_fast ship" speed="8.33" length="14.14" shape="3791.85,2198.48 3794.37,2184.57" />
	</edge>
	<edge id=":1306049162_3" function="internal">
		<lane id=":1306049162_3_0" index="0" disallow="tram rail_urban rail rail_electric rail_fast ship" speed="8.25" length="14.22" shape="3791.85,2198.48 3791.91,2194.71 3790.73,2191.71 3788.30,2189.49 3784.64,2188.05" />
	</edge>
	<edge id=":1306049162_4" function="internal">
		<lane id=":1306049162_4_0" index="0" disallow="tram rail_urban rail rail_electric rail_fast ship" speed="6.80" length="9.35" shape="3783.87,2191.16 3786.31,2192.11 3787.93,2193.56 3788.72,2195.51 3788.70,2197.97" />
	</edge>
	<edge id=":1306049162_5" function="internal">
		<lane id=":1306049162_5_0" index="0" disallow="tram rail_urban rail rail_electric rail_fast ship" speed="7.90" length="14.28" shape="3783.87,2191.16 3787.81,2191.56 3790.88,2190.59 3793.06,2188.26 3794.37,2184.57" />
	</edge>
	<edge id=":1306049164_0" function="internal">
		<lane id=":1306049164_0_0" index="0" disallow="tram rail_urban rail rail_electric rail_fast ship" speed="3.65" length="4.67" shape="3768.38,2184.06 3767.03,2184.55 3766.45,2185.23 3766.64,2186.10 3767.62,2187.16" />
	</edge>
	<edge id=":135109534_0" function="internal">
		<lane id=":135109534_0_0" index="0" disallow="tram rail_urban rail rail_electric rail_fast ship" speed="8.33" length="14.80" shape="4338.25,2164.54 4329.35,2176.37" />
	</edge>
	<edge id=":135109534_1" function="internal">
		<lane id=":135109534_1_0" index="0" disallow="tram rail_urban rail rail_electric rail_fast ship" speed="7.87" length="14.50" shape="4338.25,2164.54 4336.17,2167.98 4335.77,2171.19 4337.03,2174.16 4339.97,2176.90" />
	</edge>
	<edge id=":135109534_2" function="internal">
		<lane id=":135109534_2_0" index="0" disallow="tram rail_urban rail rail_electric rail_fast ship" speed="6.34" length="9.04" shape="4341.80,2174.28 4339.97,2172.57 4339.18,2170.71 4339.43,2168.72 4340.73,2166.57" />
	</edge>
	<edge id=":135109534_3" function="internal">
		<lane id=":135109534_3_0" index="0" disallow="tram rail_urban rail rail_electric rail_fast ship" speed="8.04" length="14.41" shape="4341.80,2174.28 4338.23,2172.47 4334.96,2172.21 4332.00,2173.51 4329.35,2176.37" />
	</edge>
	<edge id=":135109534_4" function="internal">
		<lane id=":135109534_4_0" index="0" disallow="tram rail_urban rail rail_electric rail_fast ship" speed="6.56" length="9.23" shape="4331.99,2178.18 4333.68,2176.37 4335.57,2175.55 4337.67,2175.73 4339.97,2176.90" />
	</edge>
	<edge id=":135109534_5" function="internal">
		<lane id=":135109534_5_0" index="0" disallow="tram rail_urban rail rail_electric rail_fast ship" speed="8.33" length="14.53" shape="4331.99,2178.18 4340.73,2166.57" />
	</edge>
	<edge id=":135109542_0" function="internal">
		<lane id=":135109542_0_0" index="0" disallow="tram rail_urban rail rail_electric rail_fast ship" speed="6.48" length="9.06" shape="4292.25,2183.58 4289.76,2183.49 4287.91,2182.63 4286.69,2180.99 4286.13,2178.57" />
	</edge>
	<edge id=":135109542_1" function="internal">
		<lane id=":135109542_1_0" index="0" disallow="tram rail_urban rail rail_electric rail_fast ship" speed="7.95" length="14.30" shape="4292.25,2183.58 4288.44,2184.55 4285.88,2186.50 4284.59,2189.45 4284.55,2193.38" />
	</edge>
	<edge id=":135109542_2" function="internal">
		<lane id=":135109542_2_0" index="0" disallow="tram rail_urban rail rail_electric rail_fast ship" speed="6.45" length="9.03" shape="4287.72,2192.95 4287.75,2190.47 4288.57,2188.61 4290.18,2187.38 4292.59,2186.77" />
	</edge>
	<edge id=":135109542_3" function="internal">
		<lane id=":135109542_3_0" index="0" disallow="tram rail_urban rail rail_electric rail_fast ship" speed="8.33" length="14.47" shape="4287.72,2192.95 4286.13,2178.57" />
	</edge>
	<edge id=":135109542_4" function="internal">
		<lane id=":135109542_4_0" index="0" disallow="tram rail_urban rail rail_electric rail_fast ship" speed="8.33" length="14.69" shape="4279.75,2179.13 4281.38,2193.80" />
		<lane id=":135109542_4_1" index="1" disallow="tram rail_urban rail rail_electric rail_fast ship" speed="8.33" length="14.69" shape="4282.94,2178.85 4284.55,2193.38" />
	</edge>
	<edge id=":135109542_6" function="internal">
		<lane id=":135109542_6_0" index="0" disallow="tram rail_urban rail rail_electric rail_fast ship" speed="7.98" length="4.25" shape="4282.94,2178.85 4283.83,2182.67 4284.03,2182.93" />
	</edge>
	<edge id=":135109542_7" function="internal">
		<lane id=":135109542_7_0" index="0" disallow="tram rail_urban rail rail_electric rail_fast ship" speed="7.98" length="10.04" shape="4284.03,2182.93 4285.74,2185.26 4288.66,2186.62 4292.59,2186.77" />
	</edge>
	<edge id=":1396858833_0" function="internal">
		<lane id=":1396858833_0_0" index="0" disallow="tram rail_urban rail rail_electric rail_fast ship" speed="8.33" length="14.50" shape="3990.81,2526.05 3988.07,2524.35 3986.32,2522.02 3984.91,2518.89 3983.19,2514.78" />
		<lane id=":1396858833_0_1" index="1" disallow="tram rail_urban rail rail_electric rail_fast ship" speed="8.33" length="14.50" shape="3990.81,2526.05 3987.64,2524.62 3984.92,2522.83 3982.52,2520.17 3980.27,2516.09" />
	</edge>
	<edge id=":1396858833_2" function="internal">
		<lane id=":1396858833_2_0" index="0" disallow="tram rail_urban rail rail_electric rail_fast ship" speed="8.33" length="13.88" shape="3975.74,2529.23 3977.72,2527.44 3980.52,2526.74 3984.14,2527.12 3988.59,2528.59" />
	</edge>
	<edge id=":1396858833_3" function="internal">
		<lane id=":1396858833_3_0" index="0" disallow="tram rail_urban rail rail_electric rail_fast ship" speed="8.05" length="8.27" shape="3974.43,2518.72 3975.06,2520.72 3975.15,2522.70 3974.68,2524.65 3973.67,2526.58" />
	</edge>
	<edge id=":1396858833_4" function="internal">
		<lane id=":1396858833_4_0" index="0" disallow="tram rail_urban rail rail_electric rail_fast ship" speed="8.33" length="16.33" shape="3977.35,2517.40 3979.83,2521.93 3982.46,2524.99 3985.34,2527.05 3988.59,2528.59" />
	</edge>
	<edge id=":1396858845_0" function="internal">
		<lane id=":1396858845_0_0" index="0" disallow="tram rail_urban rail rail_electric rail_fast ship" speed="8.33" length="11.48" shape="3992.54,2618.90 3989.68,2630.02" />
	</edge>
	<edge id=":1396858845_1" function="internal">
		<lane id=":1396858845_1_0" index="0" disallow="tram rail_urban rail rail_electric rail_fast ship" speed="7.26" length="11.79" shape="3992.54,2618.90 3992.37,2621.46 3993.47,2623.60 3995.85,2625.33 3999.50,2626.63" />
	</edge>
	<edge id=":1396858845_2" function="internal">
		<lane id=":1396858845_2_0" index="0" disallow="tram rail_urban rail rail_electric rail_fast ship" speed="6.41" length="9.05" shape="3992.80,2630.74 3993.65,2628.41 3995.05,2626.95 3997.00,2626.36 3999.50,2626.63" />
	</edge>
	<edge id=":1396858845_3" function="internal">
		<lane id=":1396858845_3_0" index="0" disallow="tram rail_urban rail rail_electric rail_fast ship" speed="8.33" length="11.29" shape="3992.80,2630.74 3995.61,2619.80" />
	</edge>
	<edge id=":1408679651_0" function="internal">
		<lane id=":1408679651_0_0" index="0" disallow="tram rail_urban rail rail_electric rail_fast ship" speed="6.41" length="9.05" shape="3547.66,2079.62 3545.17,2079.56 3543.34,2078.70 3542.16,2077.05 3541.64,2074.60" />
	</edge>
	<edge id=":1408679651_1" function="internal">
		<lane id=":1408679651_1_0" index="0" disallow="tram rail_urban rail rail_electric rail_fast ship" speed="8.33" length="14.46" shape="3547.66,2079.62 3533.26,2080.95" />
	</edge>
	<edge id=":1408679651_2" function="internal">
		<lane id=":1408679651_2_0" index="0" disallow="tram rail_urban rail rail_electric rail_fast ship" speed="8.33" length="14.58" shape="3533.49,2084.15 3548.01,2082.80" />
	</edge>
	<edge id=":1408679651_3" function="internal">
		<lane id=":1408679651_3_0" index="0" disallow="tram rail_urban rail rail_electric rail_fast ship" speed="8.05" length="4.17" shape="3533.49,2084.15 3537.29,2083.30 3537.52,2083.13" />
	</edge>
	<edge id=":1408679651_6" function="internal">
		<lane id=":1408679651_6_0" index="0" disallow="tram rail_urban rail rail_electric rail_fast ship" speed="8.05" length="10.12" shape="3537.52,2083.13 3539.91,2081.42 3541.36,2078.52 3541.64,2074.60" />
	</edge>
	<edge id=":1408679651_4" function="internal">
		<lane id=":1408679651_4_0" index="0" disallow="tram rail_urban rail rail_electric rail_fast ship" speed="6.56" length="9.14" shape="3538.45,2074.82 3538.27,2077.34 3537.35,2079.20 3535.68,2080.41 3533.26,2080.95" />
	</edge>
	<edge id=":1408679651_5" function="internal">
		<lane id=":1408679651_5_0" index="0" disallow="tram rail_urban rail rail_electric rail_fast ship" speed="7.91" length="14.37" shape="3538.45,2074.82 3539.28,2078.71 3541.15,2081.34 3544.06,2082.70 3548.01,2082.80" />
	</edge>
	<edge id=":1408679652_0" function="internal">
		<lane id=":1408679652_0_0" index="0" disallow="tram rail_urban rail rail_electric rail_fast ship" speed="8.33" length="14.49" shape="3468.89,2038.11 3468.52,2023.62" />
	</edge>
	<edge id=":1408679652_1" function="internal">
		<lane id=":1408679652_1_0" index="0" disallow="tram rail_urban rail rail_electric rail_fast ship" speed="7.97" length="14.25" shape="3468.89,2038.11 3468.27,2034.24 3466.56,2031.52 3463.76,2029.95 3459.87,2029.52" />
	</edge>
	<edge id=":1408679652_2" function="internal">
		<lane id=":1408679652_2_0" index="0" disallow="tram rail_urban rail rail_electric rail_fast ship" speed="6.47" length="9.03" shape="3459.97,2032.72 3462.44,2032.99 3464.21,2033.98 3465.30,2035.71 3465.69,2038.16" />
	</edge>
	<edge id=":1408679652_3" function="internal">
		<lane id=":1408679652_3_0" index="0" disallow="tram rail_urban rail rail_electric rail_fast ship" speed="8.01" length="14.24" shape="3459.97,2032.72 3463.83,2032.04 3466.54,2030.30 3468.10,2027.49 3468.52,2023.62" />
	</edge>
	<edge id=":1408679652_4" function="internal">
		<lane id=":1408679652_4_0" index="0" disallow="tram rail_urban rail rail_electric rail_fast ship" speed="6.51" length="9.07" shape="3465.32,2023.73 3465.05,2026.19 3464.06,2027.98 3462.33,2029.09 3459.87,2029.52" />
	</edge>
	<edge id=":1408679652_5" function="internal">
		<lane id=":1408679652_5_0" index="0" disallow="tram rail_urban rail rail_electric rail_fast ship" speed="8.33" length="14.43" shape="3465.32,2023.73 3465.69,2038.16" />
	</edge>
	<edge id=":1408679654_0" function="internal">
		<lane id=":1408679654_0_0" index="0" disallow="tram rail_urban rail rail_electric rail_fast ship" speed="3.65" length="4.67" shape="3431.60,2030.44 3430.42,2031.28 3430.05,2032.09 3430.48,2032.88 3431.70,2033.64" />
	</edge>
	<edge id=":1408681832_0" function="internal">
		<lane id=":1408681832_0_0" index="0" disallow="tram rail_urban rail rail_electric rail_fast ship" speed="6.41" length="9.04" shape="3337.45,2309.93 3336.78,2312.33 3335.51,2313.91 3333.62,2314.65 3331.13,2314.57" />
	</edge>
	<edge id=":1408681832_1" function="internal">
		<lane id=":1408681832_1_0" index="0" disallow="tram rail_urban rail rail_electric rail_fast ship" speed="8.33" length="14.39" shape="3337.45,2309.93 3335.69,2324.21" />
	</edge>
	<edge id=":1408681832_2" function="internal">
		<lane id=":1408681832_2_0" index="0" disallow="tram rail_urban rail rail_electric rail_fast ship" speed="8.33" length="14.35" shape="3338.86,2324.59 3340.63,2310.35" />
	</edge>
	<edge id=":1408681832_3" function="internal">
		<lane id=":1408681832_3_0" index="0" disallow="tram rail_urban rail rail_electric rail_fast ship" speed="8.19" length="14.24" shape="3338.86,2324.59 3338.75,2320.78 3337.43,2317.85 3334.89,2315.78 3331.13,2314.57" />
	</edge>
	<edge id=":1408681832_4" function="internal">
		<lane id=":1408681832_4_0" index="0" disallow="tram rail_urban rail rail_electric rail_fast ship" speed="6.73" length="9.30" shape="3330.57,2317.72 3333.05,2318.51 3334.73,2319.86 3335.61,2321.76 3335.69,2324.21" />
	</edge>
	<edge id=":1408681832_5" function="internal">
		<lane id=":1408681832_5_0" index="0" disallow="tram rail_urban rail rail_electric rail_fast ship" speed="7.92" length="14.37" shape="3330.57,2317.72 3334.53,2317.85 3337.53,2316.67 3339.56,2314.16 3340.63,2310.35" />
	</edge>
	<edge id=":1408681833_0" function="internal">
		<lane id=":1408681833_0_0" index="0" disallow="tram rail_urban rail rail_electric rail_fast ship" speed="3.65" length="4.67" shape="3304.46,2309.84 3303.14,2310.42 3302.60,2311.14 3302.86,2312.00 3303.90,2313.00" />
	</edge>
	<edge id=":1420456308_0" function="internal">
		<lane id=":1420456308_0_0" index="0" disallow="tram rail_urban rail rail_electric rail_fast ship" speed="10.94" length="16.65" shape="3562.16,2557.09 3559.05,2561.52 3555.94,2564.66 3552.81,2566.50 3549.66,2567.04" />
	</edge>
	<edge id=":1420456308_1" function="internal">
		<lane id=":1420456308_1_0" index="0" disallow="tram rail_urban rail rail_electric rail_fast ship" speed="13.89" length="20.23" shape="3562.16,2557.09 3558.99,2562.29 3556.97,2566.15 3555.60,2570.25 3554.38,2576.19" />
		<lane id=":1420456308_1_1" index="1" disallow="tram rail_urban rail rail_electric rail_fast ship" speed="13.89" length="20.23" shape="3564.89,2558.76 3561.84,2563.72 3559.95,2567.27 3558.68,2571.06 3557.54,2576.74" />
	</edge>
	<edge id=":1420456308_3" function="internal">
		<lane id=":1420456308_3_0" index="0" disallow="tram rail_urban rail rail_electric rail_fast ship" speed="8.15" length="4.51" shape="3564.89,2558.76 3563.16,2562.92" />
	</edge>
	<edge id=":1420456308_14" function="internal">
		<lane id=":1420456308_14_0" index="0" disallow="tram rail_urban rail rail_electric rail_fast ship" speed="8.15" length="15.76" shape="3563.16,2562.92 3562.75,2563.93 3563.44,2567.75 3566.98,2570.23 3573.35,2571.36" />
	</edge>
	<edge id=":1420456308_4" function="internal">
		<lane id=":1420456308_4_0" index="0" disallow="tram rail_urban rail rail_electric rail_fast ship" speed="5.71" length="9.20" shape="3573.54,2568.17 3570.84,2567.64 3569.42,2566.45 3569.25,2564.60 3570.35,2562.09" />
	</edge>
	<edge id=":1420456308_5" function="internal">
		<lane id=":1420456308_5_0" index="0" disallow="tram rail_urban rail rail_electric rail_fast ship" speed="8.33" length="23.90" shape="3573.54,2568.17 3549.66,2567.04" />
	</edge>
	<edge id=":1420456308_6" function="internal">
		<lane id=":1420456308_6_0" index="0" disallow="tram rail_urban rail rail_electric rail_fast ship" speed="9.83" length="6.83" shape="3573.54,2568.17 3567.16,2568.39 3566.73,2568.52" />
	</edge>
	<edge id=":1420456308_15" function="internal">
		<lane id=":1420456308_15_0" index="0" disallow="tram rail_urban rail rail_electric rail_fast ship" speed="9.83" length="13.20" shape="3566.73,2568.52 3562.36,2569.89 3559.16,2572.67 3557.54,2576.74" />
	</edge>
	<edge id=":1420456308_7" function="internal">
		<lane id=":1420456308_7_0" index="0" disallow="tram rail_urban rail rail_electric rail_fast ship" speed="7.96" length="12.80" shape="3563.84,2577.85 3564.89,2574.83 3566.83,2572.74 3569.65,2571.59 3573.35,2571.36" />
	</edge>
	<edge id=":1420456308_8" function="internal">
		<lane id=":1420456308_8_0" index="0" disallow="tram rail_urban rail rail_electric rail_fast ship" speed="13.89" length="17.84" shape="3563.84,2577.85 3564.86,2572.86 3565.99,2569.55 3567.67,2566.44 3570.35,2562.09" />
		<lane id=":1420456308_8_1" index="1" disallow="tram rail_urban rail rail_electric rail_fast ship" speed="13.89" length="17.84" shape="3560.69,2577.29 3561.77,2571.96 3562.97,2568.41 3564.76,2565.08 3567.62,2560.42" />
	</edge>
	<edge id=":1420456308_10" function="internal">
		<lane id=":1420456308_10_0" index="0" disallow="tram rail_urban rail rail_electric rail_fast ship" speed="8.45" length="3.46" shape="3560.69,2577.29 3560.65,2573.83" />
	</edge>
	<edge id=":1420456308_16" function="internal">
		<lane id=":1420456308_16_0" index="0" disallow="tram rail_urban rail rail_electric rail_fast ship" speed="8.45" length="14.21" shape="3560.65,2573.83 3560.65,2572.97 3558.79,2569.81 3555.13,2567.84 3549.66,2567.04" />
	</edge>
	<edge id=":1420456308_11" function="internal">
		<lane id=":1420456308_11_0" index="0" disallow="tram rail_urban rail rail_electric rail_fast ship" speed="6.22" length="9.05" shape="3549.56,2570.24 3552.05,2570.68 3553.68,2571.82 3554.46,2573.66 3554.38,2576.19" />
	</edge>
	<edge id=":1420456308_12" function="internal">
		<lane id=":1420456308_12_0" index="0" disallow="tram rail_urban rail rail_electric rail_fast ship" speed="8.33" length="23.82" shape="3549.56,2570.24 3573.35,2571.36" />
	</edge>
	<edge id=":1420456308_13" function="internal">
		<lane id=":1420456308_13_0" index="0" disallow="tram rail_urban rail rail_electric rail_fast ship" speed="11.11" length="5.42" shape="3549.56,2570.24 3554.96,2569.78" />
	</edge>
	<edge id=":1420456308_17" function="internal">
		<lane id=":1420456308_17_0" index="0" disallow="tram rail_urban rail rail_electric rail_fast ship" speed="11.11" length="16.19" shape="3554.96,2569.78 3555.13,2569.77 3559.99,2567.98 3564.16,2564.86 3567.62,2560.42" />
	</edge>
	<edge id=":1420459582_0" function="internal">
		<lane id=":1420459582_0_0" index="0" disallow="tram rail_urban rail rail_electric rail_fast ship" speed="8.33" length="13.93" shape="3777.89,2257.24 3776.91,2260.69 3775.91,2263.92 3774.80,2267.12 3773.52,2270.46" />
	</edge>
	<edge id=":1420459582_1" function="internal">
		<lane id=":1420459582_1_0" index="0" disallow="tram rail_urban rail rail_electric rail_fast ship" speed="7.80" length="14.67" shape="3777.89,2257.24 3777.39,2261.30 3778.36,2264.39 3780.80,2266.52 3784.72,2267.69" />
	</edge>
	<edge id=":1420459582_2" function="internal">
		<lane id=":1420459582_2_0" index="0" disallow="tram rail_urban rail rail_electric rail_fast ship" speed="6.26" length="9.04" shape="3785.19,2264.53 3782.77,2263.81 3781.26,2262.49 3780.67,2260.58 3780.97,2258.08" />
	</edge>
	<edge id=":1420459582_3" function="internal">
		<lane id=":1420459582_3_0" index="0" disallow="tram rail_urban rail rail_electric rail_fast ship" speed="8.33" length="14.27" shape="3785.19,2264.53 3781.17,2264.41 3777.88,2265.36 3775.33,2267.38 3773.52,2270.46" />
	</edge>
	<edge id=":1420459582_4" function="internal">
		<lane id=":1420459582_4_0" index="0" disallow="tram rail_urban rail rail_electric rail_fast ship" speed="7.44" length="9.95" shape="3776.49,2271.65 3777.74,2269.57 3779.53,2268.22 3781.85,2267.59 3784.72,2267.69" />
	</edge>
	<edge id=":1420459582_5" function="internal">
		<lane id=":1420459582_5_0" index="0" disallow="tram rail_urban rail rail_electric rail_fast ship" speed="8.33" length="14.30" shape="3776.49,2271.65 3777.79,2268.25 3778.94,2264.94 3779.98,2261.58 3780.97,2258.08" />
	</edge>
	<edge id=":1420459583_0" function="internal">
		<lane id=":1420459583_0_0" index="0" disallow="tram rail_urban rail rail_electric rail_fast ship" speed="8.33" length="14.32" shape="3767.18,2286.26 3761.46,2299.39" />
	</edge>
	<edge id=":1420459583_1" function="internal">
		<lane id=":1420459583_1_0" index="0" disallow="tram rail_urban rail rail_electric rail_fast ship" speed="7.62" length="15.26" shape="3767.18,2286.26 3766.15,2290.49 3766.87,2293.69 3769.32,2295.87 3773.51,2297.03" />
	</edge>
	<edge id=":1420459583_2" function="internal">
		<lane id=":1420459583_2_0" index="0" disallow="tram rail_urban rail rail_electric rail_fast ship" speed="6.03" length="9.07" shape="3773.92,2293.85 3771.42,2293.16 3769.96,2291.87 3769.54,2289.96 3770.15,2287.45" />
	</edge>
	<edge id=":1420459583_3" function="internal">
		<lane id=":1420459583_3_0" index="0" disallow="tram rail_urban rail rail_electric rail_fast ship" speed="8.33" length="14.65" shape="3773.92,2293.85 3769.68,2293.76 3766.19,2294.65 3763.45,2296.52 3761.46,2299.39" />
	</edge>
	<edge id=":1420459583_4" function="internal">
		<lane id=":1420459583_4_0" index="0" disallow="tram rail_urban rail rail_electric rail_fast ship" speed="7.98" length="10.63" shape="3764.34,2300.78 3765.75,2298.81 3767.75,2297.52 3770.34,2296.93 3773.51,2297.03" />
	</edge>
	<edge id=":1420459583_5" function="internal">
		<lane id=":1420459583_5_0" index="0" disallow="tram rail_urban rail rail_electric rail_fast ship" speed="8.33" length="14.54" shape="3764.34,2300.78 3770.15,2287.45" />
	</edge>
	<edge id=":1420459585_0" function="internal">
		<lane id=":1420459585_0_0" index="0" disallow="tram rail_urban rail rail_electric rail_fast ship" speed="6.43" length="9.03" shape="3651.56,2321.54 3649.41,2320.30 3648.20,2318.67 3647.93,2316.66 3648.61,2314.26" />
	</edge>
	<edge id=":1420459585_1" function="internal">
		<lane id=":1420459585_1_0" index="0" disallow="tram rail_urban rail rail_electric rail_fast ship" speed="6.69" length="9.25" shape="3642.69,2327.38 3644.04,2325.32 3645.76,2324.15 3647.88,2323.88 3650.37,2324.51" />
	</edge>
	<edge id=":1420459585_2" function="internal">
		<lane id=":1420459585_2_0" index="0" disallow="tram rail_urban rail rail_electric rail_fast ship" speed="8.33" length="14.39" shape="3642.69,2327.38 3648.61,2314.26" />
	</edge>
	<edge id=":1420459909_0" function="internal">
		<lane id=":1420459909_0_0" index="0" disallow="tram rail_urban rail rail_electric rail_fast ship" speed="6.74" length="9.23" shape="3835.39,2216.18 3834.91,2218.59 3833.76,2220.32 3831.92,2221.39 3829.39,2221.79" />
	</edge>
	<edge id=":1420459909_1" function="internal">
		<lane id=":1420459909_1_0" index="0" disallow="tram rail_urban rail rail_electric rail_fast ship" speed="13.89" length="14.20" shape="3835.39,2216.18 3835.16,2230.48" />
		<lane id=":1420459909_1_1" index="1" disallow="tram rail_urban rail rail_electric rail_fast ship" speed="13.89" length="14.20" shape="3838.58,2216.33 3838.36,2230.43" />
	</edge>