<?xml version="1.0" encoding="UTF-8"?>

<!-- generated on 2024-02-17 15:32:55 by Eclipse SUMO netconvert Version 1.18.0
<configuration xmlns:xsi="http://www.w3.org/2001/XMLSchema-instance" xsi:noNamespaceSchemaLocation="http://sumo.dlr.de/xsd/netconvertConfiguration.xsd">

    <input>
        <sumo-net-file value="/home/svadlmat/UTC/utc/data/maps/sumo/DCC.net.xml"/>
    </input>

    <output>
        <output-file value="/home/svadlmat/UTC/utc/data/maps/sumo/cluster0.net.xml"/>
        <output.street-names value="true"/>
    </output>

    <processing>
        <geometry.min-radius.fix.railways value="false"/>
        <geometry.max-grade.fix value="false"/>
        <offset.disable-normalization value="true"/>
        <lefthand value="1"/>
    </processing>

    <edge_removal>
        <keep-edges.explicit value="-113552215, -4829640, 4825317#3, 72097208#5, -362967236#0, -13878462#3, -4385390#3, -37721078#5, 38574544#2, -9186547#14, -72097208#4, -72097208#9, -405546346, 37721078#4, -4925959#1, 57058234#0, -4825310#2, -94895438#2, 38532080, 372477029, 4934596#0, -57058227, -37721078#7, 72097208#3, -128946815#1, 4829652#0, -275506898#1, -61717563#0, 94895438#0, 37721078#6, 129217476#0, 113549155#2, -38265426#1, -4825239#1, 30466177, 4934596#2, 74073875#0, -4385390#2, 4926110#2, -327805506, 13878201#3, -38637143#1, 4825310#4, -372284307#1, 57058234#1, -375758262#4, -4934596#0, 113552216#0, -48964316, 394171334#1, -38574544#1, -38554251, 13878201#2, 57058227, -372477029, -74073875#2, 4825378#0, 275506898#1, 61717563#2, 4934682#0, 38532081, -37721078#4, 405546346, 37721078#8, 38574540, -38532082#1, 38574542#0, -113549155#1, 394233223#0, 41917642#0, 38554251, -4926110#1, -42879971, 9186547#0, 394744908#0, 37721078#2, -4825323#0, 394744910, 4385390#3, 42879971, 38265427, -319556828#6, -38265427, -4829628, -128946815#2, -13878162#3, 362967234#0, -4829626#1, 275506898#0, -72097208#2, -57362486, 129217467#0, 4825239#0, 4825310#0, -4825378#2, 4925957#0, 113552215, 61717563#1, -37721078#10, 372284307#0, 48964316, -38265426#0, 4934596#1, -41917642#2, 113549155#0, 42879970#0, 13878308#0, -78366805#1, 38554538, 4925959#0, -362967234#1, -13878201#1, 38265426#0, 362967236#1, 38574544#0, 4825317#0, 319556828#1, -38532081, 289876870, -57058234#0, -282317511, 4934683, -4825310#3, 13878462#3, 4926110#3, 38637143#0, -38554539#1, 4926110#0, -4074529#2, 23582497#0, 128946815#2, 37721078#5, -38532080, -30789748, -57058234#1, -57362478#2, 37721078#0, 37722158, 4825323#0, -319556829, -38574621#1, -13878308#1, -113552216#1, 231971495#0, -129217476#2, 38532082#0, -4825323#1, -37721078#9, 72097208#1, 375758262#2, -275506898#0, 38574548#0, 4825323#1, 38574621#0, -4934596#2, -37722158, 362967236#0, 30789748, 113552216#2, 4829626#0, 394991480, 38574621#1, 4074529#0, 4385390#0, -37721078#2, -4934596#1, -362967234#0, 113549155#1, -375758262#2, -4825317#2, -38574542#2, 37721078#10, 4925957#1, 13878201#0, 37721078#7, -23582497#1, -37721078#1, -4925957#0, 394744908#1, -113549155#0, 13878225#0, -61717563#1, 4829640, 38574541#0, -4926110#2, 13878162#0, -282317508, 38265426#1, 30466178, 38574546#0, -4934683, -4829652#1, -4825310#5, -37721078#6, -38574621#0, 4829628, 362967234#1, -113549155#2, -13878201#2, -61717563#4, -38574540, -394233223#2, 4825310#3, -113552216#4, 362967237#4, -38574544#2, 128946815#1, 375758262#3, -38574548#2"/>
    </edge_removal>

    <junctions>
        <no-turnarounds value="true"/>
        <junctions.corner-detail value="5"/>
        <junctions.limit-turn-speed value="5.50"/>
        <rectangular-lane-cut value="0"/>
    </junctions>

    <pedestrian>
        <walkingareas value="0"/>
    </pedestrian>

</configuration>
-->

<net version="1.16" junctionCornerDetail="5" lefthand="true" limitTurnSpeed="5.50" xmlns:xsi="http://www.w3.org/2001/XMLSchema-instance" xsi:noNamespaceSchemaLocation="http://sumo.dlr.de/xsd/net_file.xsd">

    <location netOffset="-677749.85,-5911444.78" convBoundary="5407.44,1972.45,6064.58,2723.47" origBoundary="-6.368224,53.318846,-6.186539,53.396212" projParameter="+proj=utm +zone=29 +ellps=WGS84 +datum=WGS84 +units=m +no_defs"/>

    <type id="highway.residential" priority="3" numLanes="1" speed="13.89" disallow="tram rail_urban rail rail_electric ship" oneway="0"/>
    <type id="highway.secondary" priority="11" numLanes="2" speed="27.78" disallow="tram rail_urban rail rail_electric ship" oneway="0"/>
    <type id="highway.secondary_link" priority="6" numLanes="1" speed="22.22" disallow="tram rail_urban rail rail_electric ship" oneway="0"/>
    <type id="highway.tertiary" priority="10" numLanes="1" speed="22.22" disallow="tram rail_urban rail rail_electric ship" oneway="0"/>
    <type id="highway.tertiary_link" priority="5" numLanes="1" speed="22.22" disallow="tram rail_urban rail rail_electric ship" oneway="0"/>
    <type id="highway.unclassified" priority="4" numLanes="1" speed="13.89" disallow="tram rail_urban rail rail_electric ship" oneway="0"/>

    <edge id=":1101723000_0" function="internal">
        <lane id=":1101723000_0_0" index="0" disallow="tram rail_urban rail rail_electric rail_fast ship" speed="3.90" length="2.76" shape="5514.08,2432.95 5513.33,2433.10 5512.73,2432.97 5512.29,2432.55 5512.00,2431.84"/>
    </edge>
    <edge id=":1101723000_1" function="internal">
        <lane id=":1101723000_1_0" index="0" disallow="tram rail_urban rail rail_electric rail_fast ship" speed="6.07" length="8.28" shape="5508.89,2432.62 5509.77,2434.75 5511.11,2436.02 5512.90,2436.42 5515.16,2435.97"/>
    </edge>
    <edge id=":1101723011_0" function="internal">
        <lane id=":1101723011_0_0" index="0" disallow="tram rail_urban rail rail_electric rail_fast ship" speed="8.33" length="14.37" shape="5507.63,2344.54 5493.36,2346.28"/>
    </edge>
    <edge id=":1101723011_1" function="internal">
        <lane id=":1101723011_1_0" index="0" disallow="tram rail_urban rail rail_electric rail_fast ship" speed="8.11" length="3.99" shape="5507.63,2344.54 5503.93,2345.56 5503.81,2345.65"/>
    </edge>
    <edge id=":1101723011_6" function="internal">
        <lane id=":1101723011_6_0" index="0" disallow="tram rail_urban rail rail_electric rail_fast ship" speed="8.11" length="10.23" shape="5503.81,2345.65 5501.40,2347.55 5500.04,2350.50 5499.86,2354.42"/>
    </edge>
    <edge id=":1101723011_2" function="internal">
        <lane id=":1101723011_2_0" index="0" disallow="tram rail_urban rail rail_electric rail_fast ship" speed="6.64" length="9.19" shape="5503.05,2354.12 5503.16,2351.58 5504.03,2349.66 5505.65,2348.37 5508.03,2347.71"/>
    </edge>
    <edge id=":1101723011_3" function="internal">
        <lane id=":1101723011_3_0" index="0" disallow="tram rail_urban rail rail_electric rail_fast ship" speed="7.95" length="14.30" shape="5503.05,2354.12 5502.14,2350.30 5500.22,2347.72 5497.29,2346.38 5493.36,2346.28"/>
    </edge>
    <edge id=":1101723011_4" function="internal">
        <lane id=":1101723011_4_0" index="0" disallow="tram rail_urban rail rail_electric rail_fast ship" speed="6.45" length="9.03" shape="5493.74,2349.46 5496.22,2349.52 5498.07,2350.37 5499.28,2352.00 5499.86,2354.42"/>
    </edge>
    <edge id=":1101723011_5" function="internal">
        <lane id=":1101723011_5_0" index="0" disallow="tram rail_urban rail rail_electric rail_fast ship" speed="8.33" length="14.39" shape="5493.74,2349.46 5508.03,2347.71"/>
    </edge>
    <edge id=":1267301412_0" function="internal">
        <lane id=":1267301412_0_0" index="0" disallow="tram rail_urban rail rail_electric rail_fast ship" speed="8.64" length="15.98" shape="6058.50,2477.45 6061.94,2476.21 6064.24,2473.72 6065.41,2469.97 6065.45,2464.97"/>
    </edge>
    <edge id=":1267301412_1" function="internal">
        <lane id=":1267301412_1_0" index="0" disallow="tram rail_urban rail rail_electric rail_fast ship" speed="6.47" length="8.53" shape="6062.26,2465.19 6062.15,2467.49 6061.32,2469.24 6059.79,2470.45 6057.54,2471.12"/>
    </edge>
    <edge id=":1287551308_0" function="internal">
        <lane id=":1287551308_0_0" index="0" disallow="tram rail_urban rail rail_electric rail_fast ship" speed="3.65" length="4.67" shape="5816.05,2461.14 5817.03,2462.20 5817.88,2462.47 5818.61,2461.95 5819.21,2460.64"/>
    </edge>
    <edge id=":1287551315_0" function="internal">
        <lane id=":1287551315_0_0" index="0" disallow="tram rail_urban rail rail_electric rail_fast ship" speed="8.33" length="14.34" shape="5819.77,2428.59 5805.59,2430.71"/>
    </edge>
    <edge id=":1287551315_1" function="internal">
        <lane id=":1287551315_1_0" index="0" disallow="tram rail_urban rail rail_electric rail_fast ship" speed="8.00" length="14.21" shape="5819.77,2428.59 5816.04,2429.74 5813.58,2431.79 5812.38,2434.77 5812.45,2438.66"/>
    </edge>
    <edge id=":1287551315_2" function="internal">
        <lane id=":1287551315_2_0" index="0" disallow="tram rail_urban rail rail_electric rail_fast ship" speed="6.50" length="9.03" shape="5815.61,2438.16 5815.57,2435.68 5816.33,2433.79 5817.89,2432.48 5820.26,2431.76"/>
    </edge>
    <edge id=":1287551315_3" function="internal">
        <lane id=":1287551315_3_0" index="0" disallow="tram rail_urban rail rail_electric rail_fast ship" speed="8.05" length="14.18" shape="5815.61,2438.16 5814.46,2434.44 5812.41,2431.96 5809.45,2430.72 5805.59,2430.71"/>
    </edge>
    <edge id=":1287551315_4" function="internal">
        <lane id=":1287551315_4_0" index="0" disallow="tram rail_urban rail rail_electric rail_fast ship" speed="6.56" length="9.08" shape="5806.04,2433.88 5808.51,2433.89 5810.40,2434.68 5811.72,2436.28 5812.45,2438.66"/>
    </edge>
    <edge id=":1287551315_5" function="internal">
        <lane id=":1287551315_5_0" index="0" disallow="tram rail_urban rail rail_electric rail_fast ship" speed="8.33" length="14.38" shape="5806.04,2433.88 5820.26,2431.76"/>
    </edge>
    <edge id=":1287551339_0" function="internal">
        <lane id=":1287551339_0_0" index="0" disallow="tram rail_urban rail rail_electric rail_fast ship" speed="13.89" length="14.37" shape="5902.16,2425.06 5900.99,2410.74"/>
    </edge>
    <edge id=":1287551339_1" function="internal">
        <lane id=":1287551339_1_0" index="0" disallow="tram rail_urban rail rail_electric rail_fast ship" speed="7.90" length="3.98" shape="5902.16,2425.06 5901.26,2421.18"/>
    </edge>
    <edge id=":1287551339_6" function="internal">
        <lane id=":1287551339_6_0" index="0" disallow="tram rail_urban rail rail_electric rail_fast ship" speed="7.90" length="10.44" shape="5901.26,2421.18 5899.33,2418.59 5896.37,2417.31 5892.38,2417.32"/>
    </edge>
    <edge id=":1287551339_2" function="internal">
        <lane id=":1287551339_2_0" index="0" disallow="tram rail_urban rail rail_electric rail_fast ship" speed="6.38" length="9.04" shape="5892.85,2420.48 5895.34,2420.48 5897.20,2421.28 5898.41,2422.90 5898.98,2425.33"/>
    </edge>
    <edge id=":1287551339_3" function="internal">
        <lane id=":1287551339_3_0" index="0" disallow="tram rail_urban rail rail_electric rail_fast ship" speed="8.22" length="14.27" shape="5892.85,2420.48 5896.65,2419.39 5899.28,2417.40 5900.72,2414.52 5900.99,2410.74"/>
    </edge>
    <edge id=":1287551339_4" function="internal">
        <lane id=":1287551339_4_0" index="0" disallow="tram rail_urban rail rail_electric rail_fast ship" speed="6.77" length="9.36" shape="5897.80,2410.98 5897.62,2413.43 5896.65,2415.31 5894.91,2416.60 5892.38,2417.32"/>
    </edge>
    <edge id=":1287551339_5" function="internal">
        <lane id=":1287551339_5_0" index="0" disallow="tram rail_urban rail rail_electric rail_fast ship" speed="13.89" length="14.40" shape="5897.80,2410.98 5898.98,2425.33"/>
    </edge>
    <edge id=":1287551365_0" function="internal">
        <lane id=":1287551365_0_0" index="0" disallow="tram rail_urban rail rail_electric rail_fast ship" speed="3.65" length="4.67" shape="5767.61,2430.45 5766.20,2430.15 5765.35,2430.43 5765.06,2431.27 5765.33,2432.69"/>
    </edge>
    <edge id=":130371916_0" function="internal">
        <lane id=":130371916_0_0" index="0" disallow="tram rail_urban rail rail_electric rail_fast ship" speed="3.65" length="4.67" shape="5545.78,2223.83 5545.08,2225.09 5545.09,2225.98 5545.81,2226.51 5547.24,2226.67"/>
    </edge>
    <edge id=":130374293_0" function="internal">
        <lane id=":130374293_0_0" index="0" disallow="tram rail_urban rail rail_electric rail_fast ship" speed="8.33" length="9.46" shape="5710.09,2190.44 5708.41,2188.19 5707.33,2186.61 5706.35,2184.95 5705.00,2182.49"/>
    </edge>
    <edge id=":130374293_1" function="internal">
        <lane id=":130374293_1_0" index="0" disallow="tram rail_urban rail rail_electric rail_fast ship" speed="6.59" length="8.30" shape="5700.19,2190.94 5702.30,2190.10 5704.23,2190.06 5705.98,2190.82 5707.54,2192.37"/>
    </edge>
    <edge id=":130374293_2" function="internal">
        <lane id=":130374293_2_0" index="0" disallow="tram rail_urban rail rail_electric rail_fast ship" speed="7.10" length="10.88" shape="5700.19,2190.94 5703.20,2188.90 5705.00,2186.81 5705.60,2184.68 5705.00,2182.49"/>
    </edge>
    <edge id=":130374293_3" function="internal">
        <lane id=":130374293_3_0" index="0" disallow="tram rail_urban rail rail_electric rail_fast ship" speed="8.33" length="9.93" shape="5702.19,2184.02 5703.61,2186.60 5704.63,2188.34 5705.77,2190.01 5707.54,2192.37"/>
    </edge>
    <edge id=":130376867_0" function="internal">
        <lane id=":130376867_0_0" index="0" disallow="tram rail_urban rail rail_electric rail_fast ship" speed="8.33" length="14.49" shape="5730.25,2218.20 5721.90,2206.36"/>
    </edge>
    <edge id=":130376867_1" function="internal">
        <lane id=":130376867_1_0" index="0" disallow="tram rail_urban rail rail_electric rail_fast ship" speed="8.12" length="14.27" shape="5730.25,2218.20 5727.63,2215.39 5724.69,2214.08 5721.43,2214.25 5717.85,2215.90"/>
    </edge>
    <edge id=":130376867_2" function="internal">
        <lane id=":130376867_2_0" index="0" disallow="tram rail_urban rail rail_electric rail_fast ship" speed="6.64" length="9.19" shape="5719.63,2218.57 5721.94,2217.50 5724.04,2217.38 5725.93,2218.22 5727.62,2220.02"/>
    </edge>
    <edge id=":130376867_3" function="internal">
        <lane id=":130376867_3_0" index="0" disallow="tram rail_urban rail rail_electric rail_fast ship" speed="7.90" length="14.33" shape="5719.63,2218.57 5722.60,2215.99 5723.97,2213.09 5723.74,2209.88 5721.90,2206.36"/>
    </edge>
    <edge id=":130376867_4" function="internal">
        <lane id=":130376867_4_0" index="0" disallow="tram rail_urban rail rail_electric rail_fast ship" speed="6.39" length="9.02" shape="5719.30,2208.23 5720.45,2210.44 5720.60,2212.46 5719.73,2214.28 5717.85,2215.90"/>
    </edge>
    <edge id=":130376867_5" function="internal">
        <lane id=":130376867_5_0" index="0" disallow="tram rail_urban rail rail_electric rail_fast ship" speed="8.33" length="14.43" shape="5719.30,2208.23 5727.62,2220.02"/>
    </edge>
    <edge id=":130377917_0" function="internal">
        <lane id=":130377917_0_0" index="0" disallow="tram rail_urban rail rail_electric rail_fast ship" speed="3.65" length="4.67" shape="5687.91,2235.14 5687.33,2236.47 5687.42,2237.35 5688.19,2237.81 5689.63,2237.84"/>
    </edge>
    <edge id=":1346905_0" function="internal">
        <lane id=":1346905_0_0" index="0" disallow="tram rail_urban rail rail_electric rail_fast ship" speed="6.77" length="10.63" shape="5916.30,2496.46 5912.95,2496.65 5910.49,2495.97 5908.95,2494.41 5908.31,2491.97"/>
    </edge>
    <edge id=":1346905_1" function="internal">
        <lane id=":1346905_1_0" index="0" disallow="tram rail_urban rail rail_electric rail_fast ship" speed="13.89" length="20.72" shape="5916.30,2496.46 5895.86,2499.73"/>
        <lane id=":1346905_1_1" index="1" disallow="tram rail_urban rail rail_electric rail_fast ship" speed="13.89" length="20.72" shape="5916.83,2499.61 5896.35,2502.89"/>
    </edge>
    <edge id=":1346905_3" function="internal">
        <lane id=":1346905_3_0" index="0" disallow="tram rail_urban rail rail_electric rail_fast ship" speed="9.65" length="4.47" shape="5916.83,2499.61 5912.59,2501.01"/>
    </edge>
    <edge id=":1346905_15" function="internal">
        <lane id=":1346905_15_0" index="0" disallow="tram rail_urban rail rail_electric rail_fast ship" speed="9.65" length="15.12" shape="5912.59,2501.01 5912.02,2501.20 5908.71,2504.10 5906.90,2508.31 5906.58,2513.84"/>
    </edge>
    <edge id=":1346905_4" function="internal">
        <lane id=":1346905_4_0" index="0" disallow="tram rail_urban rail rail_electric rail_fast ship" speed="7.04" length="9.97" shape="5912.97,2513.39 5913.10,2510.46 5913.97,2508.24 5915.56,2506.73 5917.88,2505.93"/>
    </edge>
    <edge id=":1346905_5" function="internal">
        <lane id=":1346905_5_0" index="0" disallow="tram rail_urban rail rail_electric rail_fast ship" speed="13.89" length="21.96" shape="5912.97,2513.39 5911.99,2506.54 5910.50,2500.81 5909.07,2496.02 5908.31,2491.97"/>
    </edge>
    <edge id=":1346905_6" function="internal">
        <lane id=":1346905_6_0" index="0" disallow="tram rail_urban rail rail_electric rail_fast ship" speed="9.13" length="4.89" shape="5909.78,2513.62 5908.74,2508.84"/>
    </edge>
    <edge id=":1346905_16" function="internal">
        <lane id=":1346905_16_0" index="0" disallow="tram rail_urban rail rail_electric rail_fast ship" speed="9.13" length="15.10" shape="5908.74,2508.84 5908.60,2508.20 5905.97,2504.61 5901.89,2502.84 5896.35,2502.89"/>
    </edge>
    <edge id=":1346905_7" function="internal">
        <lane id=":1346905_7_0" index="0" disallow="tram rail_urban rail rail_electric rail_fast ship" speed="6.34" length="9.04" shape="5897.32,2509.22 5899.82,2509.19 5901.67,2509.99 5902.86,2511.62 5903.39,2514.07"/>
    </edge>
    <edge id=":1346905_8" function="internal">
        <lane id=":1346905_8_0" index="0" disallow="tram rail_urban rail rail_electric rail_fast ship" speed="13.89" length="20.81" shape="5897.32,2509.22 5917.88,2505.93"/>
        <lane id=":1346905_8_1" index="1" disallow="tram rail_urban rail rail_electric rail_fast ship" speed="13.89" length="20.81" shape="5896.83,2506.06 5917.36,2502.77"/>
    </edge>
    <edge id=":1346905_10" function="internal">
        <lane id=":1346905_10_0" index="0" disallow="tram rail_urban rail rail_electric rail_fast ship" speed="9.80" length="5.39" shape="5896.83,2506.06 5901.99,2504.51"/>
    </edge>
    <edge id=":1346905_17" function="internal">
        <lane id=":1346905_17_0" index="0" disallow="tram rail_urban rail rail_electric rail_fast ship" speed="9.80" length="14.95" shape="5901.99,2504.51 5902.15,2504.47 5905.84,2501.59 5907.89,2497.43 5908.31,2491.97"/>
    </edge>
    <edge id=":1346905_11" function="internal">
        <lane id=":1346905_11_0" index="0" disallow="tram rail_urban rail rail_electric rail_fast ship" speed="7.24" length="10.66" shape="5901.92,2492.39 5901.70,2495.23 5900.61,2497.40 5898.67,2498.90 5895.86,2499.73"/>
    </edge>
    <edge id=":1346905_12" function="internal">
        <lane id=":1346905_12_0" index="0" disallow="tram rail_urban rail rail_electric rail_fast ship" speed="13.89" length="21.72" shape="5901.92,2492.39 5903.39,2514.07"/>
        <lane id=":1346905_12_1" index="1" disallow="tram rail_urban rail rail_electric rail_fast ship" speed="13.89" length="21.72" shape="5905.11,2492.18 5906.58,2513.84"/>
    </edge>
    <edge id=":1346905_14" function="internal">
        <lane id=":1346905_14_0" index="0" disallow="tram rail_urban rail rail_electric rail_fast ship" speed="8.84" length="7.55" shape="5905.11,2492.18 5906.18,2497.53 5907.36,2499.27"/>
    </edge>
    <edge id=":1346905_18" function="internal">
        <lane id=":1346905_18_0" index="0" disallow="tram rail_urban rail rail_electric rail_fast ship" speed="8.84" length="11.35" shape="5907.36,2499.27 5908.58,2501.08 5912.31,2502.82 5917.36,2502.77"/>
    </edge>
    <edge id=":1426100477_0" function="internal">
        <lane id=":1426100477_0_0" index="0" disallow="tram rail_urban rail rail_electric rail_fast ship" speed="8.33" length="14.01" shape="5696.66,2276.70 5684.36,2283.27"/>
        <lane id=":1426100477_0_1" index="1" disallow="tram rail_urban rail rail_electric rail_fast ship" speed="8.33" length="14.01" shape="5698.23,2279.49 5685.82,2286.13"/>
    </edge>
    <edge id=":1426100477_2" function="internal">
        <lane id=":1426100477_2_0" index="0" disallow="tram rail_urban rail rail_electric rail_fast ship" speed="7.65" length="9.37" shape="5698.44,2293.33 5698.27,2290.54 5698.70,2288.23 5699.73,2286.40 5701.38,2285.06"/>
    </edge>
    <edge id=":1426100477_3" function="internal">
        <lane id=":1426100477_3_0" index="0" disallow="tram rail_urban rail rail_electric rail_fast ship" speed="8.11" length="18.12" shape="5698.44,2293.33 5696.90,2288.15 5694.29,2285.22 5690.59,2284.54 5685.82,2286.13"/>
    </edge>
    <edge id=":1426100477_4" function="internal">
        <lane id=":1426100477_4_0" index="0" disallow="tram rail_urban rail rail_electric rail_fast ship" speed="5.92" length="9.04" shape="5688.72,2291.83 5691.31,2290.90 5693.28,2291.06 5694.65,2292.31 5695.41,2294.65"/>
    </edge>
    <edge id=":1426100477_5" function="internal">
        <lane id=":1426100477_5_0" index="0" disallow="tram rail_urban rail rail_electric rail_fast ship" speed="8.33" length="14.28" shape="5688.72,2291.83 5701.38,2285.06"/>
        <lane id=":1426100477_5_1" index="1" disallow="tram rail_urban rail rail_electric rail_fast ship" speed="8.33" length="14.28" shape="5687.27,2288.98 5699.81,2282.27"/>
    </edge>
    <edge id=":1426100506_0" function="internal">
        <lane id=":1426100506_0_0" index="0" disallow="tram rail_urban rail rail_electric rail_fast ship" speed="6.43" length="9.03" shape="5735.76,2526.33 5733.28,2526.41 5731.39,2525.67 5730.09,2524.11 5729.40,2521.72"/>
    </edge>
    <edge id=":1426100506_1" function="internal">
        <lane id=":1426100506_1_0" index="0" disallow="tram rail_urban rail rail_electric rail_fast ship" speed="13.89" length="14.45" shape="5735.76,2526.33 5721.55,2528.77"/>
        <lane id=":1426100506_1_1" index="1" disallow="tram rail_urban rail rail_electric rail_fast ship" speed="13.89" length="14.45" shape="5736.32,2529.48 5722.07,2531.93"/>
    </edge>
    <edge id=":1426100506_3" function="internal">
        <lane id=":1426100506_3_0" index="0" disallow="tram rail_urban rail rail_electric rail_fast ship" speed="13.89" length="14.53" shape="5723.11,2538.24 5737.45,2535.78"/>
        <lane id=":1426100506_3_1" index="1" disallow="tram rail_urban rail rail_electric rail_fast ship" speed="13.89" length="14.53" shape="5722.59,2535.09 5736.89,2532.63"/>
    </edge>
    <edge id=":1426100506_5" function="internal">
        <lane id=":1426100506_5_0" index="0" disallow="tram rail_urban rail rail_electric rail_fast ship" speed="8.75" length="3.68" shape="5722.59,2535.09 5726.03,2533.79"/>
    </edge>
    <edge id=":1426100506_8" function="internal">
        <lane id=":1426100506_8_0" index="0" disallow="tram rail_urban rail rail_electric rail_fast ship" speed="8.75" length="13.20" shape="5726.03,2533.79 5726.20,2533.72 5728.54,2531.04 5729.61,2527.04 5729.40,2521.72"/>
    </edge>
    <edge id=":1426100506_6" function="internal">
        <lane id=":1426100506_6_0" index="0" disallow="tram rail_urban rail rail_electric rail_fast ship" speed="6.61" length="9.18" shape="5726.23,2522.17 5726.24,2524.72 5725.46,2526.67 5723.90,2528.02 5721.55,2528.77"/>
    </edge>
    <edge id=":1426100506_7" function="internal">
        <lane id=":1426100506_7_0" index="0" disallow="tram rail_urban rail rail_electric rail_fast ship" speed="8.61" length="17.05" shape="5726.23,2522.17 5727.54,2527.35 5729.75,2530.81 5732.86,2532.57 5736.89,2532.63"/>
    </edge>
    <edge id=":2934109588_0" function="internal">
        <lane id=":2934109588_0_0" index="0" disallow="tram rail_urban rail rail_electric rail_fast ship" speed="13.89" length="6.63" shape="5890.52,2149.94 5885.07,2153.76"/>
        <lane id=":2934109588_0_1" index="1" disallow="tram rail_urban rail rail_electric rail_fast ship" speed="13.89" length="6.63" shape="5892.32,2152.59 5886.92,2156.37"/>
    </edge>
    <edge id=":2934109588_2" function="internal">
        <lane id=":2934109588_2_0" index="0" disallow="tram rail_urban rail rail_electric rail_fast ship" speed="13.89" length="6.53" shape="5888.77,2158.98 5894.12,2155.23"/>
    </edge>
    <edge id=":2934109588_3" function="internal">
        <lane id=":2934109588_3_0" index="0" disallow="tram rail_urban rail rail_electric rail_fast ship" speed="9.18" length="4.96" shape="5890.52,2158.43 5891.17,2157.18 5891.90,2156.50 5892.84,2155.99 5894.12,2155.23"/>
    </edge>
    <edge id=":30977317_0" function="internal">
        <lane id=":30977317_0_0" index="0" disallow="tram rail_urban rail rail_electric rail_fast ship" speed="13.89" length="14.20" shape="5992.31,2483.58 5978.37,2486.08"/>
        <lane id=":30977317_0_1" index="1" disallow="tram rail_urban rail rail_electric rail_fast ship" speed="13.89" length="14.20" shape="5992.91,2486.72 5978.90,2489.24"/>
    </edge>
    <edge id=":30977317_2" function="internal">
        <lane id=":30977317_2_0" index="0" disallow="tram rail_urban rail rail_electric rail_fast ship" speed="9.04" length="3.20" shape="5992.91,2486.72 5989.97,2487.98"/>
    </edge>
    <edge id=":30977317_8" function="internal">
        <lane id=":30977317_8_0" index="0" disallow="tram rail_urban rail rail_electric rail_fast ship" speed="9.04" length="13.58" shape="5989.97,2487.98 5989.55,2488.16 5987.29,2490.91 5986.14,2494.96 5986.09,2500.32"/>
    </edge>
    <edge id=":30977317_3" function="internal">
        <lane id=":30977317_3_0" index="0" disallow="tram rail_urban rail rail_electric rail_fast ship" speed="6.94" length="9.51" shape="5989.28,2500.05 5989.40,2497.37 5990.24,2495.31 5991.81,2493.85 5994.12,2493.01"/>
    </edge>
    <edge id=":30977317_4" function="internal">
        <lane id=":30977317_4_0" index="0" disallow="tram rail_urban rail rail_electric rail_fast ship" speed="8.54" length="17.32" shape="5989.28,2500.05 5988.24,2494.73 5986.17,2491.16 5983.05,2489.33 5978.90,2489.24"/>
    </edge>
    <edge id=":30977317_5" function="internal">
        <lane id=":30977317_5_0" index="0" disallow="tram rail_urban rail rail_electric rail_fast ship" speed="6.34" length="9.04" shape="5979.95,2495.55 5982.46,2495.49 5984.32,2496.27 5985.53,2497.88 5986.09,2500.32"/>
    </edge>
    <edge id=":30977317_6" function="internal">
        <lane id=":30977317_6_0" index="0" disallow="tram rail_urban rail rail_electric rail_fast ship" speed="13.89" length="14.35" shape="5979.95,2495.55 5994.12,2493.01"/>
        <lane id=":30977317_6_1" index="1" disallow="tram rail_urban rail rail_electric rail_fast ship" speed="13.89" length="14.35" shape="5979.43,2492.39 5993.51,2489.86"/>
    </edge>
    <edge id=":31015134_0" function="internal">
        <lane id=":31015134_0_0" index="0" disallow="tram rail_urban rail rail_electric rail_fast ship" speed="6.70" length="9.32" shape="5684.84,2535.05 5682.24,2535.15 5680.20,2534.45 5678.75,2532.95 5677.87,2530.64"/>
    </edge>
    <edge id=":31015134_1" function="internal">
        <lane id=":31015134_1_0" index="0" disallow="tram rail_urban rail rail_electric rail_fast ship" speed="13.89" length="15.57" shape="5684.84,2535.05 5680.24,2535.86 5677.10,2536.52 5674.01,2537.35 5669.52,2538.69"/>
        <lane id=":31015134_1_1" index="1" disallow="tram rail_urban rail rail_electric rail_fast ship" speed="13.89" length="15.57" shape="5685.39,2538.20 5680.89,2539.00 5677.83,2539.64 5674.82,2540.45 5670.44,2541.75"/>
    </edge>
    <edge id=":31015134_3" function="internal">
        <lane id=":31015134_3_0" index="0" disallow="tram rail_urban rail rail_electric rail_fast ship" speed="6.58" length="9.33" shape="5682.01,2551.34 5681.89,2548.71 5682.59,2546.69 5684.12,2545.29 5686.47,2544.51"/>
    </edge>
    <edge id=":31015134_4" function="internal">
        <lane id=":31015134_4_0" index="0" disallow="tram rail_urban rail rail_electric rail_fast ship" speed="8.33" length="21.11" shape="5682.01,2551.34 5677.87,2530.64"/>
    </edge>
    <edge id=":31015134_5" function="internal">
        <lane id=":31015134_5_0" index="0" disallow="tram rail_urban rail rail_electric rail_fast ship" speed="8.49" length="5.81" shape="5682.01,2551.34 5680.44,2546.10 5680.24,2545.83"/>
    </edge>
    <edge id=":31015134_12" function="internal">
        <lane id=":31015134_12_0" index="0" disallow="tram rail_urban rail rail_electric rail_fast ship" speed="8.49" length="11.68" shape="5680.24,2545.83 5677.99,2542.76 5674.66,2541.31 5670.44,2541.75"/>
    </edge>
    <edge id=":31015134_6" function="internal">
        <lane id=":31015134_6_0" index="0" disallow="tram rail_urban rail rail_electric rail_fast ship" speed="6.28" length="9.04" shape="5672.28,2547.89 5674.77,2547.51 5676.70,2548.06 5678.06,2549.53 5678.86,2551.92"/>
    </edge>
    <edge id=":31015134_7" function="internal">
        <lane id=":31015134_7_0" index="0" disallow="tram rail_urban rail rail_electric rail_fast ship" speed="13.89" length="14.80" shape="5672.28,2547.89 5676.43,2546.65 5679.30,2545.88 5682.20,2545.26 5686.47,2544.51"/>
        <lane id=":31015134_7_1" index="1" disallow="tram rail_urban rail rail_electric rail_fast ship" speed="13.89" length="14.80" shape="5671.36,2544.82 5675.62,2543.55 5678.57,2542.76 5681.55,2542.13 5685.93,2541.36"/>
    </edge>
    <edge id=":31015134_9" function="internal">
        <lane id=":31015134_9_0" index="0" disallow="tram rail_urban rail rail_electric rail_fast ship" speed="7.03" length="10.10" shape="5674.74,2531.33 5674.86,2533.83 5674.03,2535.89 5672.25,2537.51 5669.52,2538.69"/>
    </edge>
    <edge id=":31015134_10" function="internal">