<?xml version="1.0" encoding="UTF-8"?>

<!-- generated on 2024-02-17 15:32:57 by Eclipse SUMO netconvert Version 1.18.0
<configuration xmlns:xsi="http://www.w3.org/2001/XMLSchema-instance" xsi:noNamespaceSchemaLocation="http://sumo.dlr.de/xsd/netconvertConfiguration.xsd">

    <input>
        <sumo-net-file value="/home/svadlmat/UTC/utc/data/maps/sumo/DCC.net.xml"/>
    </input>

    <output>
        <output-file value="/home/svadlmat/UTC/utc/data/maps/sumo/cluster2.net.xml"/>
        <output.street-names value="true"/>
    </output>

    <processing>
        <geometry.min-radius.fix.railways value="false"/>
        <geometry.max-grade.fix value="false"/>
        <offset.disable-normalization value="true"/>
        <lefthand value="1"/>
    </processing>

    <edge_removal>
        <keep-edges.explicit value="-22820549#5, -31897169#2, 31897261#1, 375581291#1, -317697975#2, 30046889, -31897169#0, 30046888#1, -375581292#1, -31897261#1, 47861482#0, -37812705#1, 23076537#1, 137621708#2, -22820607#1, -23076537#2, -4834895#2, -363394751, -4541293#3, -372341252#0, -37096954, -31897170, 310474286, -229549550, -137621704, 137621705#0, -33466812, 140310097#0, -33466813, -22820608#2, 22770310, -22566802#0, 137621704, -310303150, -3818299#1, 23050727, 22820607#0, 30046891#0, -137621709#0, -4287187#9, -55814737, 30454726#0, 22820606, 30454688, -31897261#0, -137621708#0, -59433209#2, -317697974, 30046890, 372341252#2, -4287187#8, 3818299#0, -33466814, -30046888#0, 192108777#0, -4899745#2, 22820549#2, 59433209#0, 26500151, -137621706#0, -22944424#1, 317697975#2, -137621707, 37720965#1, -37720965#1, -4541293#4, 4541293#4, -138406904, -481224216#0, 4287187#6, -30046890, -192108777#3, -23076565#1, 23076520, -22770275#1, -23102758#5, 317697975#1, 137621706#1, -229549553#1, -22566803, -229549553#0, 136553370#1, 23076564#0, 31897261#2, -23076520, 4287187#9, -317697975#4, -31897169#1, -14678786#2, 4834895#0, -30454726#0, 4937392#1, -140667094#0, 29269011#0, 372341252#1, -55814733, -137621701#0, -158262918, -4541293#8, -4937387#2, -22820549#1, 4287187#8, 137621701#1, 283633789, -47861482#1, -23050726, 33466814, 37691269, 39476005#1, 30046896, 22566801#1, 22566802#1, 136553370#0, -137621709#1, 502143950, 22944424#0, -30046896, -4834895#3, 37096954, 140294334, 4541293#5, -22566801#4, -22820549#3, 23050725, -4287187#1, 4287187#4, -23076566, 22770275#2, 22820549#4, 4541293#8, -4287188#1, 229549553#0, 33466812, -137621702#1, -59433202, 22770275#0, 23076566, 59433202, 310303150, 140667094#1, 4541293#0, -31897261#3, -30454725#4, -137621706#1, 23076565#0, 375581292#0, 23050726, -4541293#5, -317697975#6, 317697975#4, 310303510, 14678455, 31897169#1, -375581291#1, 30046888#0, -22820608#1, 317697975#5, 137621703, 137621708#0, 4287187#3, 137621702#1, -30454726#1, 4541293#9, 137621709#1, -14678455, -30046891#0, -4287187#3, 22820608#2, -29269011#1, 4834895#3, -317697975#1, -4541293#1, -14678903, 481224216#0, -372341252#1, 30046891#1, -140310097#1, 155815976, -4834895#0, -155815976, -23050727, 55814737, 31897169#2, 137621709#0, 137621707, -4541293#7, -137621708#1, -23050725, -37691097, 33466813, 137621705#1, 31897262, 37812705#0, -155815978, 229549550, gneE55, 481221024#0, -310303510, 31897261#0, 4541293#3, -30046887#4, 22820549#0, 14677976#0, 30046887#3, 23102758#0, 30046887#1, 14678903, gneE54, 137621702#0, -38613436#1, -137621705#0, 229549553#1, -30046891#1, 375581292#1, 158262918, -4287187#6, 155814819, 37691265#0, -4287187#4, 14678786#0, -372341252#3, -137621705#1, 55814733, -4834895#4, 23565536, 37691097, -137621703, 30454725#4, 38613436#1, 4899745#0, 136553370#2, -22566801#1, -39476005#0, -481221024#1, 22566803, 4937390, -30046887#1, -375581292#0, -140667094#2, 363394751, -23565536, 22566802#0, 137621708#1, -137621702#0, gneE57, 4834895#1, -140294334, 30454726#1, -375581293#1, -39476005#2, 22566801#2, -37691265#0, 4541293#6"/>
    </edge_removal>

    <junctions>
        <no-turnarounds value="true"/>
        <junctions.corner-detail value="5"/>
        <junctions.limit-turn-speed value="5.50"/>
        <rectangular-lane-cut value="0"/>
    </junctions>

    <pedestrian>
        <walkingareas value="0"/>
    </pedestrian>

</configuration>
-->

<net version="1.16" junctionCornerDetail="5" lefthand="true" limitTurnSpeed="5.50" xmlns:xsi="http://www.w3.org/2001/XMLSchema-instance" xsi:noNamespaceSchemaLocation="http://sumo.dlr.de/xsd/net_file.xsd">

    <location netOffset="-677749.85,-5911444.78" convBoundary="5310.32,3958.62,6102.49,4765.52" origBoundary="-6.368224,53.318846,-6.186539,53.396212" projParameter="+proj=utm +zone=29 +ellps=WGS84 +datum=WGS84 +units=m +no_defs"/>

    <type id="highway.residential" priority="3" numLanes="1" speed="13.89" disallow="tram rail_urban rail rail_electric ship" oneway="0"/>
    <type id="highway.secondary" priority="11" numLanes="2" speed="27.78" disallow="tram rail_urban rail rail_electric ship" oneway="0"/>
    <type id="highway.secondary_link" priority="6" numLanes="1" speed="22.22" disallow="tram rail_urban rail rail_electric ship" oneway="0"/>
    <type id="highway.tertiary" priority="10" numLanes="1" speed="22.22" disallow="tram rail_urban rail rail_electric ship" oneway="0"/>

    <edge id=":1005318956_0" function="internal">
        <lane id=":1005318956_0_0" index="0" disallow="tram rail_urban rail rail_electric rail_fast ship" speed="6.90" length="9.47" shape="5797.83,4431.43 5795.18,4431.19 5793.18,4430.24 5791.83,4428.59 5791.12,4426.23"/>
    </edge>
    <edge id=":1005318956_1" function="internal">
        <lane id=":1005318956_1_0" index="0" disallow="tram rail_urban rail rail_electric rail_fast ship" speed="7.82" length="14.58" shape="5797.83,4431.43 5793.86,4432.16 5791.21,4434.00 5789.88,4436.95 5789.88,4441.03"/>
    </edge>
    <edge id=":1005318956_2" function="internal">
        <lane id=":1005318956_2_0" index="0" disallow="tram rail_urban rail rail_electric rail_fast ship" speed="6.29" length="9.05" shape="5793.05,4440.58 5793.05,4438.05 5793.88,4436.22 5795.52,4435.08 5797.99,4434.63"/>
    </edge>
    <edge id=":1005318956_3" function="internal">
        <lane id=":1005318956_3_0" index="0" disallow="tram rail_urban rail rail_electric rail_fast ship" speed="13.89" length="14.48" shape="5793.05,4440.58 5791.12,4426.23"/>
    </edge>
    <edge id=":1005318956_4" function="internal">
        <lane id=":1005318956_4_0" index="0" disallow="tram rail_urban rail rail_electric rail_fast ship" speed="13.89" length="14.59" shape="5787.94,4426.57 5789.88,4441.03"/>
    </edge>
    <edge id=":1005318956_5" function="internal">
        <lane id=":1005318956_5_0" index="0" disallow="tram rail_urban rail rail_electric rail_fast ship" speed="8.37" length="3.93" shape="5787.94,4426.57 5789.01,4430.21 5789.10,4430.32"/>
    </edge>
    <edge id=":1005318956_6" function="internal">
        <lane id=":1005318956_6_0" index="0" disallow="tram rail_urban rail rail_electric rail_fast ship" speed="8.37" length="10.44" shape="5789.10,4430.32 5791.05,4432.77 5794.04,4434.24 5797.99,4434.63"/>
    </edge>
    <edge id=":12117926_0" function="internal">
        <lane id=":12117926_0_0" index="0" disallow="tram rail_urban rail rail_electric rail_fast ship" speed="6.53" length="8.31" shape="5765.50,4688.56 5763.30,4688.15 5761.67,4687.15 5760.63,4685.55 5760.17,4683.35"/>
    </edge>
    <edge id=":12117926_1" function="internal">
        <lane id=":12117926_1_0" index="0" disallow="tram rail_urban rail rail_electric rail_fast ship" speed="13.89" length="19.01" shape="5765.50,4688.56 5761.14,4688.86 5756.12,4689.95 5751.26,4691.61 5747.40,4693.64"/>
    </edge>
    <edge id=":12117926_2" function="internal">
        <lane id=":12117926_2_0" index="0" disallow="tram rail_urban rail rail_electric rail_fast ship" speed="13.89" length="16.96" shape="5749.24,4696.27 5752.78,4694.32 5756.96,4692.85 5761.31,4691.97 5765.36,4691.76"/>
    </edge>
    <edge id=":12117926_3" function="internal">
        <lane id=":12117926_3_0" index="0" disallow="tram rail_urban rail rail_electric rail_fast ship" speed="10.77" length="3.40" shape="5749.24,4696.27 5751.86,4694.10"/>
    </edge>
    <edge id=":12117926_6" function="internal">
        <lane id=":12117926_6_0" index="0" disallow="tram rail_urban rail rail_electric rail_fast ship" speed="10.77" length="12.14" shape="5751.86,4694.10 5752.80,4693.32 5755.28,4690.22 5756.67,4686.97 5756.97,4683.57"/>
    </edge>
    <edge id=":12117926_4" function="internal">
        <lane id=":12117926_4_0" index="0" disallow="tram rail_urban rail rail_electric rail_fast ship" speed="8.97" length="10.60" shape="5750.59,4684.00 5750.57,4687.26 5750.03,4689.95 5748.98,4692.08 5747.40,4693.64"/>
    </edge>
    <edge id=":12117926_5" function="internal">
        <lane id=":12117926_5_0" index="0" disallow="tram rail_urban rail rail_electric rail_fast ship" speed="8.71" length="15.53" shape="5753.78,4683.79 5754.70,4687.09 5756.93,4689.52 5760.48,4691.08 5765.36,4691.76"/>
    </edge>
    <edge id=":12118455_0" function="internal">
        <lane id=":12118455_0_0" index="0" disallow="tram rail_urban rail rail_electric rail_fast ship" speed="13.89" length="14.76" shape="5618.27,4414.05 5608.31,4403.08"/>
        <lane id=":12118455_0_1" index="1" disallow="tram rail_urban rail rail_electric rail_fast ship" speed="13.89" length="14.76" shape="5615.86,4416.16 5605.97,4405.26"/>
    </edge>
    <edge id=":12118455_2" function="internal">
        <lane id=":12118455_2_0" index="0" disallow="tram rail_urban rail rail_electric rail_fast ship" speed="9.21" length="3.41" shape="5615.86,4416.16 5613.11,4414.15"/>
    </edge>
    <edge id=":12118455_8" function="internal">
        <lane id=":12118455_8_0" index="0" disallow="tram rail_urban rail rail_electric rail_fast ship" speed="9.21" length="13.60" shape="5613.11,4414.15 5613.00,4414.06 5609.45,4413.53 5605.24,4414.56 5600.35,4417.16"/>
    </edge>
    <edge id=":12118455_3" function="internal">
        <lane id=":12118455_3_0" index="0" disallow="tram rail_urban rail rail_electric rail_fast ship" speed="7.17" length="9.93" shape="5602.09,4419.85 5604.68,4418.56 5607.04,4418.23 5609.16,4418.83 5611.06,4420.38"/>
    </edge>
    <edge id=":12118455_4" function="internal">
        <lane id=":12118455_4_0" index="0" disallow="tram rail_urban rail rail_electric rail_fast ship" speed="8.41" length="17.89" shape="5602.09,4419.85 5606.42,4416.29 5608.51,4412.68 5608.36,4409.00 5605.97,4405.26"/>
    </edge>
    <edge id=":12118455_5" function="internal">
        <lane id=":12118455_5_0" index="0" disallow="tram rail_urban rail rail_electric rail_fast ship" speed="6.16" length="9.05" shape="5601.29,4409.62 5602.74,4411.72 5603.06,4413.67 5602.27,4415.48 5600.35,4417.16"/>
    </edge>
    <edge id=":12118455_6" function="internal">
        <lane id=":12118455_6_0" index="0" disallow="tram rail_urban rail rail_electric rail_fast ship" speed="13.89" length="14.58" shape="5601.29,4409.62 5611.06,4420.38"/>
        <lane id=":12118455_6_1" index="1" disallow="tram rail_urban rail rail_electric rail_fast ship" speed="13.89" length="14.58" shape="5603.63,4407.44 5613.46,4418.27"/>
    </edge>
    <edge id=":144837225_0" function="internal">
        <lane id=":144837225_0_0" index="0" disallow="tram rail_urban rail rail_electric rail_fast ship" speed="6.94" length="10.34" shape="5559.80,4343.75 5557.63,4345.04 5555.42,4345.21 5553.14,4344.25 5550.82,4342.16"/>
    </edge>
    <edge id=":144837225_1" function="internal">
        <lane id=":144837225_1_0" index="0" disallow="tram rail_urban rail rail_electric rail_fast ship" speed="13.89" length="20.85" shape="5559.80,4343.75 5543.24,4356.41"/>
    </edge>
    <edge id=":144837225_2" function="internal">
        <lane id=":144837225_2_0" index="0" disallow="tram rail_urban rail rail_electric rail_fast ship" speed="8.15" length="15.40" shape="5559.80,4343.75 5556.12,4347.53 5554.20,4350.95 5554.04,4354.01 5555.63,4356.72"/>
    </edge>
    <edge id=":144837225_3" function="internal">
        <lane id=":144837225_3_0" index="0" disallow="tram rail_urban rail rail_electric rail_fast ship" speed="13.89" length="13.86" shape="5560.21,4352.25 5550.82,4342.16"/>
        <lane id=":144837225_3_1" index="1" disallow="tram rail_urban rail rail_electric rail_fast ship" speed="13.89" length="13.86" shape="5557.92,4354.48 5548.42,4344.28"/>
    </edge>
    <edge id=":144837225_5" function="internal">
        <lane id=":144837225_5_0" index="0" disallow="tram rail_urban rail rail_electric rail_fast ship" speed="8.72" length="3.32" shape="5557.92,4354.48 5555.18,4352.60"/>
    </edge>
    <edge id=":144837225_11" function="internal">
        <lane id=":144837225_11_0" index="0" disallow="tram rail_urban rail rail_electric rail_fast ship" speed="8.72" length="13.33" shape="5555.18,4352.60 5554.76,4352.31 5551.27,4351.91 5547.43,4353.28 5543.24,4356.41"/>
    </edge>
    <edge id=":144837225_6" function="internal">
        <lane id=":144837225_6_0" index="0" disallow="tram rail_urban rail rail_electric rail_fast ship" speed="6.56" length="8.99" shape="5545.41,4358.76 5547.43,4357.37 5549.43,4356.93 5551.40,4357.46 5553.34,4358.95"/>
    </edge>
    <edge id=":144837225_7" function="internal">
        <lane id=":144837225_7_0" index="0" disallow="tram rail_urban rail rail_electric rail_fast ship" speed="8.69" length="16.68" shape="5545.41,4358.76 5548.87,4354.84 5550.53,4351.12 5550.38,4347.60 5548.42,4344.28"/>
    </edge>
    <edge id=":144837225_8" function="internal">
        <lane id=":144837225_8_0" index="0" disallow="tram rail_urban rail rail_electric rail_fast ship" speed="6.53" length="8.96" shape="5543.64,4348.53 5544.99,4350.57 5545.37,4352.57 5544.79,4354.51 5543.24,4356.41"/>
    </edge>
    <edge id=":144837225_9" function="internal">
        <lane id=":144837225_9_0" index="0" disallow="tram rail_urban rail rail_electric rail_fast ship" speed="13.89" length="14.16" shape="5543.64,4348.53 5553.34,4358.95"/>
        <lane id=":144837225_9_1" index="1" disallow="tram rail_urban rail rail_electric rail_fast ship" speed="13.89" length="14.16" shape="5546.03,4346.41 5555.63,4356.72"/>
    </edge>
    <edge id=":144837827_0" function="internal">
        <lane id=":144837827_0_0" index="0" disallow="tram rail_urban rail rail_electric rail_fast ship" speed="6.62" length="10.08" shape="5520.84,4309.00 5518.97,4306.49 5518.28,4304.21 5518.75,4302.16 5520.40,4300.33"/>
    </edge>
    <edge id=":144837827_1" function="internal">
        <lane id=":144837827_1_0" index="0" disallow="tram rail_urban rail rail_electric rail_fast ship" speed="13.89" length="14.33" shape="5520.84,4309.00 5511.08,4298.51"/>
        <lane id=":144837827_1_1" index="1" disallow="tram rail_urban rail rail_electric rail_fast ship" speed="13.89" length="14.33" shape="5518.50,4311.18 5508.73,4300.68"/>
    </edge>
    <edge id=":144837827_3" function="internal">
        <lane id=":144837827_3_0" index="0" disallow="tram rail_urban rail rail_electric rail_fast ship" speed="8.78" length="3.59" shape="5518.50,4311.18 5515.58,4309.09"/>
    </edge>
    <edge id=":144837827_11" function="internal">
        <lane id=":144837827_11_0" index="0" disallow="tram rail_urban rail rail_electric rail_fast ship" speed="8.78" length="13.24" shape="5515.58,4309.09 5515.38,4308.95 5511.86,4308.49 5507.94,4309.80 5503.61,4312.88"/>
    </edge>
    <edge id=":144837827_4" function="internal">
        <lane id=":144837827_4_0" index="0" disallow="tram rail_urban rail rail_electric rail_fast ship" speed="6.64" length="9.19" shape="5505.72,4315.29 5507.84,4313.89 5509.91,4313.47 5511.90,4314.02 5513.83,4315.56"/>
    </edge>
    <edge id=":144837827_5" function="internal">
        <lane id=":144837827_5_0" index="0" disallow="tram rail_urban rail rail_electric rail_fast ship" speed="13.89" length="20.96" shape="5505.72,4315.29 5520.40,4300.33"/>
    </edge>
    <edge id=":144837827_6" function="internal">
        <lane id=":144837827_6_0" index="0" disallow="tram rail_urban rail rail_electric rail_fast ship" speed="8.63" length="17.00" shape="5505.72,4315.29 5509.33,4311.38 5511.04,4307.64 5510.84,4304.07 5508.73,4300.68"/>
    </edge>
    <edge id=":144837827_7" function="internal">
        <lane id=":144837827_7_0" index="0" disallow="tram rail_urban rail rail_electric rail_fast ship" speed="6.45" length="9.03" shape="5504.03,4305.02 5505.44,4307.06 5505.84,4309.06 5505.23,4311.00 5503.61,4312.88"/>
    </edge>
    <edge id=":144837827_8" function="internal">
        <lane id=":144837827_8_0" index="0" disallow="tram rail_urban rail rail_electric rail_fast ship" speed="13.89" length="14.38" shape="5504.03,4305.02 5513.83,4315.56"/>
        <lane id=":144837827_8_1" index="1" disallow="tram rail_urban rail rail_electric rail_fast ship" speed="13.89" length="14.38" shape="5506.38,4302.85 5516.17,4313.37"/>
    </edge>
    <edge id=":144837827_10" function="internal">
        <lane id=":144837827_10_0" index="0" disallow="tram rail_urban rail rail_electric rail_fast ship" speed="8.66" length="2.86" shape="5506.38,4302.85 5508.78,4304.40"/>
    </edge>
    <edge id=":144837827_12" function="internal">
        <lane id=":144837827_12_0" index="0" disallow="tram rail_urban rail rail_electric rail_fast ship" speed="8.66" length="12.77" shape="5508.78,4304.40 5508.93,4304.50 5512.12,4304.63 5515.94,4303.24 5520.40,4300.33"/>
    </edge>
    <edge id=":144841406_0" function="internal">
        <lane id=":144841406_0_0" index="0" disallow="tram rail_urban rail rail_electric rail_fast ship" speed="13.89" length="14.77" shape="5655.94,4460.79 5647.11,4448.88"/>
        <lane id=":144841406_0_1" index="1" disallow="tram rail_urban rail rail_electric rail_fast ship" speed="13.89" length="14.77" shape="5653.33,4462.65 5644.57,4450.83"/>
    </edge>
    <edge id=":144841406_2" function="internal">
        <lane id=":144841406_2_0" index="0" disallow="tram rail_urban rail rail_electric rail_fast ship" speed="8.71" length="3.80" shape="5653.33,4462.65 5650.57,4460.03"/>
    </edge>
    <edge id=":144841406_8" function="internal">
        <lane id=":144841406_8_0" index="0" disallow="tram rail_urban rail rail_electric rail_fast ship" speed="8.71" length="13.16" shape="5650.57,4460.03 5650.48,4459.95 5647.03,4459.03 5642.99,4459.88 5638.33,4462.50"/>
    </edge>
    <edge id=":144841406_3" function="internal">
        <lane id=":144841406_3_0" index="0" disallow="tram rail_urban rail rail_electric rail_fast ship" speed="6.55" length="9.15" shape="5640.18,4465.11 5642.44,4463.95 5644.51,4463.76 5646.40,4464.57 5648.11,4466.36"/>
    </edge>
    <edge id=":144841406_4" function="internal">
        <lane id=":144841406_4_0" index="0" disallow="tram rail_urban rail rail_electric rail_fast ship" speed="8.60" length="17.08" shape="5640.18,4465.11 5644.19,4461.58 5646.26,4458.02 5646.39,4454.44 5644.57,4450.83"/>
    </edge>
    <edge id=":144841406_5" function="internal">
        <lane id=":144841406_5_0" index="0" disallow="tram rail_urban rail rail_electric rail_fast ship" speed="6.42" length="9.04" shape="5639.50,4454.74 5640.73,4456.91 5640.94,4458.92 5640.14,4460.79 5638.33,4462.50"/>
    </edge>
    <edge id=":144841406_6" function="internal">
        <lane id=":144841406_6_0" index="0" disallow="tram rail_urban rail rail_electric rail_fast ship" speed="13.89" length="14.52" shape="5639.50,4454.74 5648.11,4466.36"/>
        <lane id=":144841406_6_1" index="1" disallow="tram rail_urban rail rail_electric rail_fast ship" speed="13.89" length="14.52" shape="5642.04,4452.78 5650.72,4464.50"/>
    </edge>
    <edge id=":144843875_0" function="internal">
        <lane id=":144843875_0_0" index="0" disallow="tram rail_urban rail rail_electric rail_fast ship" speed="3.65" length="4.67" shape="5469.66,4473.46 5468.74,4472.35 5467.90,4472.04 5467.15,4472.52 5466.48,4473.80"/>
    </edge>
    <edge id=":144844902_0" function="internal">
        <lane id=":144844902_0_0" index="0" disallow="tram rail_urban rail rail_electric rail_fast ship" speed="3.65" length="4.67" shape="5524.52,4456.42 5523.29,4457.17 5522.86,4457.96 5523.23,4458.77 5524.40,4459.62"/>
    </edge>
    <edge id=":1508507003_0" function="internal">
        <lane id=":1508507003_0_0" index="0" disallow="tram rail_urban rail rail_electric rail_fast ship" speed="9.31" length="19.65" shape="6017.91,4589.81 6023.19,4585.71 6026.26,4581.74 6027.14,4577.87 6025.82,4574.12"/>
    </edge>
    <edge id=":1508507003_1" function="internal">
        <lane id=":1508507003_1_0" index="0" disallow="tram rail_urban rail rail_electric rail_fast ship" speed="6.50" length="9.03" shape="6017.79,4579.38 6018.84,4581.62 6018.92,4583.66 6018.03,4585.49 6016.16,4587.13"/>
    </edge>
    <edge id=":1509380174_0" function="internal">
        <lane id=":1509380174_0_0" index="0" disallow="tram rail_urban rail rail_electric rail_fast ship" speed="13.89" length="14.66" shape="5783.45,4369.06 5769.41,4373.30"/>
    </edge>
    <edge id=":1509380174_1" function="internal">
        <lane id=":1509380174_1_0" index="0" disallow="tram rail_urban rail rail_electric rail_fast ship" speed="7.80" length="4.36" shape="5783.45,4369.06 5779.71,4370.70 5779.53,4370.90"/>
    </edge>
    <edge id=":1509380174_6" function="internal">
        <lane id=":1509380174_6_0" index="0" disallow="tram rail_urban rail rail_electric rail_fast ship" speed="7.80" length="10.31" shape="5779.53,4370.90 5777.54,4373.12 5776.96,4376.31 5777.95,4380.27"/>
    </edge>
    <edge id=":1509380174_2" function="internal">
        <lane id=":1509380174_2_0" index="0" disallow="tram rail_urban rail rail_electric rail_fast ship" speed="6.26" length="9.04" shape="5780.91,4379.06 5780.30,4376.62 5780.66,4374.65 5782.00,4373.16 5784.31,4372.15"/>
    </edge>
    <edge id=":1509380174_3" function="internal">
        <lane id=":1509380174_3_0" index="0" disallow="tram rail_urban rail rail_electric rail_fast ship" speed="8.27" length="14.44" shape="5780.91,4379.06 5778.90,4375.54 5776.31,4373.41 5773.15,4372.66 5769.41,4373.30"/>
    </edge>
    <edge id=":1509380174_4" function="internal">
        <lane id=":1509380174_4_0" index="0" disallow="tram rail_urban rail rail_electric rail_fast ship" speed="6.83" length="9.54" shape="5770.42,4376.34 5772.85,4375.94 5774.91,4376.46 5776.61,4377.91 5777.95,4380.27"/>
    </edge>
    <edge id=":1509380174_5" function="internal">
        <lane id=":1509380174_5_0" index="0" disallow="tram rail_urban rail rail_electric rail_fast ship" speed="13.89" length="14.51" shape="5770.42,4376.34 5784.31,4372.15"/>
    </edge>
    <edge id=":1509380176_0" function="internal">
        <lane id=":1509380176_0_0" index="0" disallow="tram rail_urban rail rail_electric rail_fast ship" speed="3.65" length="4.67" shape="5851.48,4401.03 5852.55,4400.07 5852.83,4399.22 5852.32,4398.48 5851.02,4397.87"/>
    </edge>
    <edge id=":1509380179_0" function="internal">
        <lane id=":1509380179_0_0" index="0" disallow="tram rail_urban rail rail_electric rail_fast ship" speed="13.89" length="13.32" shape="5791.02,4425.54 5790.55,4422.08 5790.17,4418.94 5789.87,4415.78 5789.65,4412.30"/>
    </edge>
    <edge id=":1509380179_1" function="internal">
        <lane id=":1509380179_1_0" index="0" disallow="tram rail_urban rail rail_electric rail_fast ship" speed="7.69" length="4.23" shape="5791.02,4425.54 5789.84,4421.48"/>
    </edge>
    <edge id=":1509380179_6" function="internal">
        <lane id=":1509380179_6_0" index="0" disallow="tram rail_urban rail rail_electric rail_fast ship" speed="7.69" length="10.77" shape="5789.84,4421.48 5787.66,4419.04 5784.50,4418.23 5780.34,4419.05"/>
    </edge>
    <edge id=":1509380179_2" function="internal">
        <lane id=":1509380179_2_0" index="0" disallow="tram rail_urban rail rail_electric rail_fast ship" speed="6.12" length="9.06" shape="5781.41,4422.07 5783.91,4421.58 5785.83,4422.06 5787.14,4423.53 5787.86,4425.99"/>
    </edge>
    <edge id=":1509380179_3" function="internal">
        <lane id=":1509380179_3_0" index="0" disallow="tram rail_urban rail rail_electric rail_fast ship" speed="8.87" length="13.78" shape="5781.41,4422.07 5785.14,4420.33 5787.76,4418.12 5789.26,4415.44 5789.65,4412.30"/>
    </edge>
    <edge id=":1509380179_4" function="internal">
        <lane id=":1509380179_4_0" index="0" disallow="tram rail_urban rail rail_electric rail_fast ship" speed="7.51" length="9.65" shape="5786.45,4412.46 5786.15,4414.51 5785.03,4416.29 5783.10,4417.81 5780.34,4419.05"/>
    </edge>
    <edge id=":1509380179_5" function="internal">
        <lane id=":1509380179_5_0" index="0" disallow="tram rail_urban rail rail_electric rail_fast ship" speed="13.89" length="13.61" shape="5786.45,4412.46 5786.68,4415.99 5786.98,4419.24 5787.38,4422.49 5787.86,4425.99"/>
    </edge>
    <edge id=":1509380180_0" function="internal">
        <lane id=":1509380180_0_0" index="0" disallow="tram rail_urban rail rail_electric rail_fast ship" speed="6.69" length="9.27" shape="5872.62,4424.10 5872.19,4426.52 5871.05,4428.27 5869.20,4429.34 5866.65,4429.73"/>
    </edge>
    <edge id=":1509380180_1" function="internal">
        <lane id=":1509380180_1_0" index="0" disallow="tram rail_urban rail rail_electric rail_fast ship" speed="13.89" length="14.41" shape="5872.62,4424.10 5872.21,4438.51"/>
    </edge>
    <edge id=":1509380180_2" function="internal">
        <lane id=":1509380180_2_0" index="0" disallow="tram rail_urban rail rail_electric rail_fast ship" speed="7.92" length="4.12" shape="5875.41,4438.60 5874.96,4434.66 5874.89,4434.53"/>
    </edge>
    <edge id=":1509380180_4" function="internal">
        <lane id=":1509380180_4_0" index="0" disallow="tram rail_urban rail rail_electric rail_fast ship" speed="7.92" length="10.26" shape="5874.89,4434.53 5873.35,4431.87 5870.58,4430.23 5866.65,4429.73"/>
    </edge>
    <edge id=":1509380180_3" function="internal">
        <lane id=":1509380180_3_0" index="0" disallow="tram rail_urban rail rail_electric rail_fast ship" speed="6.41" length="9.04" shape="5866.70,4432.93 5869.18,4433.24 5870.92,4434.27 5871.93,4436.03 5872.21,4438.51"/>
    </edge>
    <edge id=":1509380184_0" function="internal">
        <lane id=":1509380184_0_0" index="0" disallow="tram rail_urban rail rail_electric rail_fast ship" speed="13.89" length="14.51" shape="5832.02,4430.35 5817.51,4430.73"/>
    </edge>
    <edge id=":1509380184_1" function="internal">
        <lane id=":1509380184_1_0" index="0" disallow="tram rail_urban rail rail_electric rail_fast ship" speed="7.84" length="4.22" shape="5832.02,4430.35 5828.02,4431.00 5827.88,4431.09"/>
    </edge>
    <edge id=":1509380184_6" function="internal">
        <lane id=":1509380184_6_0" index="0" disallow="tram rail_urban rail rail_electric rail_fast ship" speed="7.84" length="10.36" shape="5827.88,4431.09 5825.32,4432.78 5823.91,4435.69 5823.79,4439.74"/>
    </edge>
    <edge id=":1509380184_2" function="internal">
        <lane id=":1509380184_2_0" index="0" disallow="tram rail_urban rail rail_electric rail_fast ship" speed="6.31" length="9.04" shape="5826.97,4439.37 5827.04,4436.86 5827.92,4435.05 5829.59,4433.95 5832.07,4433.55"/>
    </edge>
    <edge id=":1509380184_3" function="internal">
        <lane id=":1509380184_3_0" index="0" disallow="tram rail_urban rail rail_electric rail_fast ship" speed="8.29" length="14.37" shape="5826.97,4439.37 5825.99,4435.48 5824.09,4432.74 5821.26,4431.16 5817.51,4430.73"/>
    </edge>
    <edge id=":1509380184_4" function="internal">
        <lane id=":1509380184_4_0" index="0" disallow="tram rail_urban rail rail_electric rail_fast ship" speed="6.85" length="9.50" shape="5817.62,4433.93 5820.06,4434.22 5821.90,4435.28 5823.15,4437.12 5823.79,4439.74"/>
    </edge>
    <edge id=":1509380184_5" function="internal">
        <lane id=":1509380184_5_0" index="0" disallow="tram rail_urban rail rail_electric rail_fast ship" speed="13.89" length="14.45" shape="5817.62,4433.93 5832.07,4433.55"/>
    </edge>
    <edge id=":1509380193_0" function="internal">
        <lane id=":1509380193_0_0" index="0" disallow="tram rail_urban rail rail_electric rail_fast ship" speed="13.89" length="13.99" shape="5755.21,4440.14 5752.58,4442.59 5750.04,4444.84 5747.43,4447.03 5744.63,4449.28"/>
    </edge>
    <edge id=":1509380193_1" function="internal">
        <lane id=":1509380193_1_0" index="0" disallow="tram rail_urban rail rail_electric rail_fast ship" speed="10.71" length="2.47" shape="5755.21,4440.14 5754.00,4442.02 5753.95,4442.24"/>
    </edge>
    <edge id=":1509380193_6" function="internal">
        <lane id=":1509380193_6_0" index="0" disallow="tram rail_urban rail rail_electric rail_fast ship" speed="10.71" length="11.13" shape="5753.95,4442.24 5753.34,4444.83 5753.21,4448.59 5753.63,4453.28"/>
    </edge>
    <edge id=":1509380193_2" function="internal">
        <lane id=":1509380193_2_0" index="0" disallow="tram rail_urban rail rail_electric rail_fast ship" speed="8.89" length="9.21" shape="5756.61,4451.40 5756.30,4448.12 5756.33,4445.54 5756.70,4443.65 5757.42,4442.45"/>
    </edge>
    <edge id=":1509380193_3" function="internal">
        <lane id=":1509380193_3_0" index="0" disallow="tram rail_urban rail rail_electric rail_fast ship" speed="7.31" length="16.43" shape="5756.61,4451.40 5755.34,4447.35 5752.92,4445.64 5749.35,4446.28 5744.63,4449.28"/>
    </edge>
    <edge id=":1509380193_4" function="internal">
        <lane id=":1509380193_4_0" index="0" disallow="tram rail_urban rail rail_electric rail_fast ship" speed="5.78" length="9.73" shape="5746.61,4451.79 5749.36,4450.06 5751.45,4449.73 5752.87,4450.80 5753.63,4453.28"/>
    </edge>
    <edge id=":1509380193_5" function="internal">
        <lane id=":1509380193_5_0" index="0" disallow="tram rail_urban rail rail_electric rail_fast ship" speed="13.89" length="14.29" shape="5746.61,4451.79 5749.45,4449.51 5752.13,4447.25 5754.76,4444.93 5757.42,4442.45"/>
    </edge>