<?xml version="1.0" encoding="UTF-8"?>

<!-- generated on 2022-04-12 17:47:57 by Eclipse SUMO netconvert Version 1.12.0
<configuration xmlns:xsi="http://www.w3.org/2001/XMLSchema-instance" xsi:noNamespaceSchemaLocation="http://sumo.dlr.de/xsd/netconvertConfiguration.xsd">

    <input>
        <osm-files value="/home/svadlmat/UTC/Project/Maps/osm/filtered/Dejvice_filtered.osm"/>
    </input>

    <output>
        <output-file value="/home/svadlmat/UTC/Project/Maps/sumo/Dejvice.net.xml"/>
    </output>

    <projection>
        <proj.utm value="true"/>
    </projection>

    <processing>
        <numerical-ids.node-start value="0"/>
        <numerical-ids.edge-start value="0"/>
        <geometry.remove value="true"/>
        <roundabouts.guess value="true"/>
    </processing>

    <ramp_guessing>
        <ramps.guess value="true"/>
    </ramp_guessing>

    <edge_removal>
        <keep-edges value="1"/>
        <remove-edges.isolated value="true"/>
    </edge_removal>

    <junctions>
        <junctions.join value="true"/>
    </junctions>

    <report>
        <aggregate-warnings value="5"/>
    </report>

</configuration>
-->

<net version="1.9" junctionCornerDetail="5" limitTurnSpeed="5.50" xmlns:xsi="http://www.w3.org/2001/XMLSchema-instance" xsi:noNamespaceSchemaLocation="http://sumo.dlr.de/xsd/net_file.xsd">

    <location netOffset="-456549.58,-5550032.66" convBoundary="0.00,0.00,1099.45,959.24" origBoundary="14.392383,50.101022,14.411015,50.110847" projParameter="+proj=utm +zone=33 +ellps=WGS84 +datum=WGS84 +units=m +no_defs"/>

    <type id="highway.bridleway" priority="1" numLanes="1" speed="2.78" allow="pedestrian" oneway="1" width="2.00"/>
    <type id="highway.bus_guideway" priority="1" numLanes="1" speed="27.78" allow="bus" oneway="1"/>
    <type id="highway.cycleway" priority="1" numLanes="1" speed="8.33" allow="bicycle" oneway="0" width="1.00"/>
    <type id="highway.footway" priority="1" numLanes="1" speed="2.78" allow="pedestrian" oneway="1" width="2.00"/>
    <type id="highway.ford" priority="1" numLanes="1" speed="2.78" allow="army" oneway="0"/>
    <type id="highway.living_street" priority="2" numLanes="1" speed="2.78" disallow="tram rail_urban rail rail_electric rail_fast ship" oneway="0"/>
    <type id="highway.motorway" priority="14" numLanes="2" speed="39.44" allow="private emergency authority army vip passenger hov taxi bus coach delivery truck trailer motorcycle evehicle custom1 custom2" oneway="1"/>
    <type id="highway.motorway_link" priority="9" numLanes="1" speed="22.22" allow="private emergency authority army vip passenger hov taxi bus coach delivery truck trailer motorcycle evehicle custom1 custom2" oneway="1"/>
    <type id="highway.path" priority="1" numLanes="1" speed="2.78" allow="pedestrian bicycle" oneway="0" width="2.00"/>
    <type id="highway.pedestrian" priority="1" numLanes="1" speed="2.78" allow="pedestrian" oneway="1" width="2.00"/>
    <type id="highway.primary" priority="12" numLanes="2" speed="27.78" disallow="tram rail_urban rail rail_electric rail_fast ship" oneway="0"/>
    <type id="highway.primary_link" priority="7" numLanes="1" speed="22.22" disallow="tram rail_urban rail rail_electric rail_fast ship" oneway="0"/>
    <type id="highway.raceway" priority="15" numLanes="2" speed="83.33" allow="vip" oneway="0"/>
    <type id="highway.residential" priority="3" numLanes="1" speed="13.89" disallow="tram rail_urban rail rail_electric rail_fast ship" oneway="0"/>
    <type id="highway.secondary" priority="11" numLanes="1" speed="27.78" disallow="tram rail_urban rail rail_electric rail_fast ship" oneway="0"/>
    <type id="highway.secondary_link" priority="6" numLanes="1" speed="22.22" disallow="tram rail_urban rail rail_electric rail_fast ship" oneway="0"/>
    <type id="highway.service" priority="1" numLanes="1" speed="5.56" allow="pedestrian delivery bicycle" oneway="0"/>
    <type id="highway.stairs" priority="1" numLanes="1" speed="1.39" allow="pedestrian" oneway="1" width="2.00"/>
    <type id="highway.step" priority="1" numLanes="1" speed="1.39" allow="pedestrian" oneway="1" width="2.00"/>
    <type id="highway.steps" priority="1" numLanes="1" speed="1.39" allow="pedestrian" oneway="1" width="2.00"/>
    <type id="highway.tertiary" priority="10" numLanes="1" speed="22.22" disallow="tram rail_urban rail rail_electric rail_fast ship" oneway="0"/>
    <type id="highway.tertiary_link" priority="5" numLanes="1" speed="22.22" disallow="tram rail_urban rail rail_electric rail_fast ship" oneway="0"/>
    <type id="highway.track" priority="1" numLanes="1" speed="5.56" allow="pedestrian motorcycle moped bicycle" oneway="0"/>
    <type id="highway.trunk" priority="13" numLanes="2" speed="27.78" disallow="pedestrian bicycle tram rail_urban rail rail_electric rail_fast ship" oneway="0"/>
    <type id="highway.trunk_link" priority="8" numLanes="1" speed="22.22" disallow="pedestrian bicycle tram rail_urban rail rail_electric rail_fast ship" oneway="0"/>
    <type id="highway.unclassified" priority="4" numLanes="1" speed="13.89" disallow="tram rail_urban rail rail_electric rail_fast ship" oneway="0"/>
    <type id="highway.unsurfaced" priority="1" numLanes="1" speed="8.33" disallow="tram rail_urban rail rail_electric rail_fast ship" oneway="0"/>
    <type id="railway.highspeed" priority="21" numLanes="1" speed="69.44" allow="rail_fast" oneway="1"/>
    <type id="railway.light_rail" priority="19" numLanes="1" speed="27.78" allow="rail_urban" oneway="1"/>
    <type id="railway.preserved" priority="16" numLanes="1" speed="27.78" allow="rail" oneway="1"/>
    <type id="railway.rail" priority="20" numLanes="1" speed="44.44" allow="rail" oneway="1"/>
    <type id="railway.subway" priority="18" numLanes="1" speed="27.78" allow="rail_urban" oneway="1"/>
    <type id="railway.tram" priority="17" numLanes="1" speed="13.89" allow="tram" oneway="1"/>

    <edge id=":0_0" function="internal">
        <lane id=":0_0_0" index="0" disallow="tram rail_urban rail rail_electric rail_fast ship" speed="3.65" length="4.67" shape="947.35,565.85 947.48,567.29 947.11,568.10 946.23,568.29 944.86,567.86"/>
    </edge>
    <edge id=":1_0" function="internal">
        <lane id=":1_0_0" index="0" disallow="tram rail_urban rail rail_electric rail_fast ship" speed="27.78" length="8.21" shape="176.61,611.16 176.69,613.57 177.12,615.21 177.55,616.85 177.61,619.26"/>
        <lane id=":1_0_1" index="1" disallow="tram rail_urban rail rail_electric rail_fast ship" speed="27.78" length="8.21" shape="176.61,611.16 176.19,613.53 175.53,615.08 174.86,616.64 174.42,619.01"/>
    </edge>
    <edge id=":10_0" function="internal">
        <lane id=":10_0_0" index="0" disallow="tram rail_urban rail rail_electric rail_fast ship" speed="11.11" length="11.38" shape="164.24,538.78 161.10,538.34 158.67,537.66 156.24,537.01 153.09,536.64"/>
    </edge>
    <edge id=":10_1" function="internal">
        <lane id=":10_1_0" index="0" disallow="tram rail_urban rail rail_electric rail_fast ship" speed="7.33" length="11.72" shape="164.24,538.78 161.84,538.08 160.19,536.33 159.30,533.52 159.18,529.66"/>
    </edge>
    <edge id=":10_2" function="internal">
        <lane id=":10_2_0" index="0" disallow="tram rail_urban rail rail_electric rail_fast ship" speed="3.65" length="4.67" shape="164.24,538.78 163.09,537.91 162.74,537.09 163.19,536.31 164.44,535.59"/>
    </edge>
    <edge id=":10_3" function="internal">
        <lane id=":10_3_0" index="0" disallow="tram rail_urban rail rail_electric rail_fast ship" speed="6.80" length="10.25" shape="158.20,543.99 158.08,540.85 157.19,538.58 155.52,537.17 153.09,536.64"/>
    </edge>
    <edge id=":10_4" function="internal">
        <lane id=":10_4_0" index="0" disallow="tram rail_urban rail rail_electric rail_fast ship" speed="27.78" length="14.37" shape="158.20,543.99 159.18,529.66"/>
    </edge>
    <edge id=":10_5" function="internal">
        <lane id=":10_5_0" index="0" disallow="tram rail_urban rail rail_electric rail_fast ship" speed="7.36" length="11.74" shape="158.20,543.99 158.83,540.19 160.08,537.52 161.95,535.98 164.44,535.59"/>
    </edge>
    <edge id=":13_0" function="internal">
        <lane id=":13_0_0" index="0" disallow="tram rail_urban rail rail_electric rail_fast ship" speed="3.65" length="4.67" shape="7.41,392.36 6.26,391.48 5.92,390.65 6.37,389.88 7.63,389.17"/>
    </edge>
    <edge id=":14_0" function="internal">
        <lane id=":14_0_0" index="0" disallow="tram rail_urban rail rail_electric rail_fast ship" speed="6.59" length="8.66" shape="211.10,228.11 208.72,228.39 206.95,229.32 205.78,230.89 205.21,233.12"/>
    </edge>
    <edge id=":14_1" function="internal">
        <lane id=":14_1_0" index="0" disallow="tram rail_urban rail rail_electric rail_fast ship" speed="27.78" length="10.49" shape="206.16,222.68 205.21,233.12"/>
    </edge>
    <edge id=":15_0" function="internal">
        <lane id=":15_0_0" index="0" disallow="tram rail_urban rail rail_electric rail_fast ship" speed="3.65" length="4.67" shape="868.49,0.37 868.99,-0.98 869.68,-1.56 870.55,-1.35 871.60,-0.37"/>
    </edge>
    <edge id=":2_0" function="internal">
        <lane id=":2_0_0" index="0" disallow="tram rail_urban rail rail_electric rail_fast ship" speed="27.78" length="8.21" shape="166.74,742.87 166.81,745.28 167.23,746.91 167.67,748.55 167.74,750.96"/>
        <lane id=":2_0_1" index="1" disallow="tram rail_urban rail rail_electric rail_fast ship" speed="27.78" length="8.21" shape="166.74,742.87 166.31,745.24 165.64,746.80 164.97,748.36 164.55,750.73"/>
    </edge>
    <edge id=":22_0" function="internal">
        <lane id=":22_0_0" index="0" disallow="tram rail_urban rail rail_electric rail_fast ship" speed="8.33" length="17.29" shape="319.88,237.74 315.89,236.73 311.48,235.63 307.05,234.69 302.99,234.12"/>
    </edge>
    <edge id=":22_1" function="internal">
        <lane id=":22_1_0" index="0" disallow="tram rail_urban rail rail_electric rail_fast ship" speed="3.65" length="4.67" shape="319.88,237.74 318.90,236.68 318.71,235.81 319.29,235.13 320.65,234.64"/>
    </edge>
    <edge id=":22_2" function="internal">
        <lane id=":22_2_0" index="0" disallow="tram rail_urban rail rail_electric rail_fast ship" speed="6.56" length="7.69" shape="316.39,229.05 316.61,231.09 317.39,232.70 318.74,233.88 320.65,234.64"/>
    </edge>
    <edge id=":22_3" function="internal">
        <lane id=":22_3_0" index="0" disallow="tram rail_urban rail rail_electric rail_fast ship" speed="8.28" length="15.88" shape="316.39,229.05 315.49,231.67 312.96,233.39 308.79,234.21 302.99,234.12"/>
    </edge>
    <edge id=":23_0" function="internal">
        <lane id=":23_0_0" index="0" disallow="tram rail_urban rail rail_electric rail_fast ship" speed="6.48" length="9.08" shape="528.14,312.87 525.69,312.29 523.67,312.64 522.07,313.90 520.89,316.08"/>
    </edge>
    <edge id=":23_1" function="internal">
        <lane id=":23_1_0" index="0" disallow="tram rail_urban rail rail_electric rail_fast ship" speed="13.89" length="11.22" shape="528.14,312.87 517.65,308.88"/>
    </edge>
    <edge id=":23_2" function="internal">
        <lane id=":23_2_0" index="0" disallow="tram rail_urban rail rail_electric rail_fast ship" speed="7.36" length="2.51" shape="528.14,312.87 526.05,311.47"/>
    </edge>
    <edge id=":23_3" function="internal">
        <lane id=":23_3_0" index="0" disallow="tram rail_urban rail rail_electric rail_fast ship" speed="3.65" length="1.44" shape="528.14,312.87 527.31,311.69"/>
    </edge>
    <edge id=":23_8" function="internal">
        <lane id=":23_8_0" index="0" disallow="tram rail_urban rail rail_electric rail_fast ship" speed="7.36" length="9.23" shape="526.05,311.47 525.00,309.29 525.00,306.34 526.03,302.61"/>
    </edge>
    <edge id=":23_9" function="internal">
        <lane id=":23_9_0" index="0" disallow="tram rail_urban rail rail_electric rail_fast ship" speed="3.65" length="3.23" shape="527.31,311.69 527.23,310.80 527.89,310.20 529.30,309.88"/>
    </edge>
    <edge id=":23_4" function="internal">
        <lane id=":23_4_0" index="0" disallow="tram rail_urban rail rail_electric rail_fast ship" speed="6.53" length="9.07" shape="518.77,305.88 521.20,306.41 523.23,306.05 524.84,304.78 526.03,302.61"/>
    </edge>
    <edge id=":23_5" function="internal">
        <lane id=":23_5_0" index="0" disallow="tram rail_urban rail rail_electric rail_fast ship" speed="13.89" length="11.27" shape="518.77,305.88 529.30,309.88"/>
    </edge>
    <edge id=":23_6" function="internal">
        <lane id=":23_6_0" index="0" disallow="tram rail_urban rail rail_electric rail_fast ship" speed="7.33" length="2.57" shape="518.77,305.88 520.83,307.23 520.87,307.33"/>
    </edge>
    <edge id=":23_7" function="internal">
        <lane id=":23_7_0" index="0" disallow="tram rail_urban rail rail_electric rail_fast ship" speed="3.65" length="1.44" shape="518.77,305.88 519.61,307.05"/>
    </edge>
    <edge id=":23_10" function="internal">
        <lane id=":23_10_0" index="0" disallow="tram rail_urban rail rail_electric rail_fast ship" speed="7.33" length="9.11" shape="520.87,307.33 521.87,309.39 521.89,312.33 520.89,316.08"/>
    </edge>
    <edge id=":23_11" function="internal">
        <lane id=":23_11_0" index="0" disallow="tram rail_urban rail rail_electric rail_fast ship" speed="3.65" length="3.23" shape="519.61,307.05 519.71,307.93 519.05,308.54 517.65,308.88"/>
    </edge>
    <edge id=":24_0" function="internal">
        <lane id=":24_0_0" index="0" disallow="tram rail_urban rail rail_electric rail_fast ship" speed="12.50" length="11.25" shape="648.43,357.39 637.89,353.46"/>
    </edge>
    <edge id=":24_1" function="internal">
        <lane id=":24_1_0" index="0" disallow="tram rail_urban rail rail_electric rail_fast ship" speed="7.31" length="2.52" shape="648.43,357.39 646.33,356.01"/>
    </edge>
    <edge id=":24_2" function="internal">
        <lane id=":24_2_0" index="0" disallow="tram rail_urban rail rail_electric rail_fast ship" speed="3.65" length="1.44" shape="648.43,357.39 647.59,356.22"/>
    </edge>
    <edge id=":24_9" function="internal">
        <lane id=":24_9_0" index="0" disallow="tram rail_urban rail rail_electric rail_fast ship" speed="7.31" length="9.22" shape="646.33,356.01 645.27,353.84 645.27,350.90 646.32,347.18"/>
    </edge>
    <edge id=":24_10" function="internal">
        <lane id=":24_10_0" index="0" disallow="tram rail_urban rail rail_electric rail_fast ship" speed="3.65" length="3.23" shape="647.59,356.22 647.50,355.33 648.16,354.72 649.56,354.39"/>
    </edge>
    <edge id=":24_3" function="internal">
        <lane id=":24_3_0" index="0" disallow="tram rail_urban rail rail_electric rail_fast ship" speed="6.56" length="9.12" shape="639.00,350.46 641.45,350.99 643.48,350.62 645.11,349.35 646.32,347.18"/>
    </edge>
    <edge id=":24_4" function="internal">
        <lane id=":24_4_0" index="0" disallow="tram rail_urban rail rail_electric rail_fast ship" speed="13.89" length="11.27" shape="639.00,350.46 649.56,354.39"/>
    </edge>
    <edge id=":24_5" function="internal">
        <lane id=":24_5_0" index="0" disallow="tram rail_urban rail rail_electric rail_fast ship" speed="3.65" length="1.44" shape="639.00,350.46 639.85,351.62"/>
    </edge>
    <edge id=":24_11" function="internal">
        <lane id=":24_11_0" index="0" disallow="tram rail_urban rail rail_electric rail_fast ship" speed="3.65" length="3.23" shape="639.85,351.62 639.95,352.51 639.30,353.13 637.89,353.46"/>
    </edge>
    <edge id=":24_6" function="internal">
        <lane id=":24_6_0" index="0" disallow="tram rail_urban rail rail_electric rail_fast ship" speed="6.48" length="9.03" shape="641.16,360.65 641.70,358.24 641.34,356.23 640.07,354.64 637.89,353.46"/>
    </edge>
    <edge id=":24_7" function="internal">
        <lane id=":24_7_0" index="0" disallow="tram rail_urban rail rail_electric rail_fast ship" speed="8.33" length="14.43" shape="641.16,360.65 646.32,347.18"/>
    </edge>
    <edge id=":24_8" function="internal">
        <lane id=":24_8_0" index="0" disallow="tram rail_urban rail rail_electric rail_fast ship" speed="7.35" length="11.77" shape="641.16,360.65 642.86,357.17 644.83,354.97 647.07,354.04 649.56,354.39"/>
    </edge>
    <edge id=":25_0" function="internal">
        <lane id=":25_0_0" index="0" disallow="tram rail_urban rail rail_electric rail_fast ship" speed="8.33" length="11.18" shape="692.99,240.88 682.54,236.92"/>
    </edge>
    <edge id=":25_1" function="internal">
        <lane id=":25_1_0" index="0" disallow="tram rail_urban rail rail_electric rail_fast ship" speed="6.52" length="9.03" shape="692.99,240.88 690.83,239.68 689.56,238.08 689.19,236.07 689.71,233.66"/>
    </edge>
    <edge id=":25_2" function="internal">
        <lane id=":25_2_0" index="0" disallow="tram rail_urban rail rail_electric rail_fast ship" speed="6.52" length="9.03" shape="685.81,244.13 686.34,241.72 685.97,239.71 684.70,238.11 682.54,236.92"/>
    </edge>
    <edge id=":25_3" function="internal">
        <lane id=":25_3_0" index="0" disallow="tram rail_urban rail rail_electric rail_fast ship" speed="8.33" length="11.18" shape="685.81,244.13 689.71,233.66"/>
    </edge>
    <edge id=":26_0" function="internal">
        <lane id=":26_0_0" index="0" disallow="tram rail_urban rail rail_electric rail_fast ship" speed="8.33" length="11.22" shape="572.50,195.29 561.99,191.36"/>
    </edge>
    <edge id=":26_1" function="internal">
        <lane id=":26_1_0" index="0" disallow="tram rail_urban rail rail_electric rail_fast ship" speed="6.57" length="9.10" shape="572.50,195.29 570.33,194.09 569.04,192.48 568.65,190.45 569.15,188.01"/>
    </edge>
    <edge id=":26_2" function="internal">
        <lane id=":26_2_0" index="0" disallow="tram rail_urban rail rail_electric rail_fast ship" speed="6.50" length="9.04" shape="565.28,198.56 565.82,196.14 565.45,194.13 564.17,192.54 561.99,191.36"/>
    </edge>
    <edge id=":26_3" function="internal">
        <lane id=":26_3_0" index="0" disallow="tram rail_urban rail rail_electric rail_fast ship" speed="8.33" length="11.23" shape="565.28,198.56 569.15,188.01"/>
    </edge>
    <edge id=":27_0" function="internal">
        <lane id=":27_0_0" index="0" disallow="tram rail_urban rail rail_electric rail_fast ship" speed="7.00" length="9.93" shape="932.09,257.17 931.09,254.56 929.56,252.82 927.51,251.95 924.92,251.95"/>
    </edge>
    <edge id=":27_1" function="internal">
        <lane id=":27_1_0" index="0" disallow="tram rail_urban rail rail_electric rail_fast ship" speed="22.22" length="12.03" shape="932.09,257.17 929.18,245.50"/>
    </edge>
    <edge id=":27_2" function="internal">
        <lane id=":27_2_0" index="0" disallow="tram rail_urban rail rail_electric rail_fast ship" speed="3.65" length="1.44" shape="932.09,257.17 932.58,255.82"/>
    </edge>
    <edge id=":27_9" function="internal">
        <lane id=":27_9_0" index="0" disallow="tram rail_urban rail rail_electric rail_fast ship" speed="3.65" length="3.23" shape="932.58,255.82 933.27,255.24 934.14,255.44 935.20,256.42"/>
    </edge>
    <edge id=":27_3" function="internal">
        <lane id=":27_3_0" index="0" disallow="tram rail_urban rail rail_electric rail_fast ship" speed="6.09" length="9.31" shape="939.68,250.25 937.15,250.60 935.56,251.74 934.91,253.68 935.20,256.42"/>
    </edge>
    <edge id=":27_4" function="internal">
        <lane id=":27_4_0" index="0" disallow="tram rail_urban rail rail_electric rail_fast ship" speed="8.33" length="14.88" shape="939.68,250.25 935.96,250.37 932.28,250.79 928.61,251.36 924.92,251.95"/>
    </edge>
    <edge id=":27_5" function="internal">
        <lane id=":27_5_0" index="0" disallow="tram rail_urban rail rail_electric rail_fast ship" speed="8.34" length="12.30" shape="939.68,250.25 935.53,249.89 932.40,248.97 930.28,247.51 929.18,245.50"/>
    </edge>
    <edge id=":27_6" function="internal">
        <lane id=":27_6_0" index="0" disallow="tram rail_urban rail rail_electric rail_fast ship" speed="22.22" length="12.08" shape="932.28,244.70 935.20,256.42"/>
    </edge>
    <edge id=":27_7" function="internal">
        <lane id=":27_7_0" index="0" disallow="tram rail_urban rail rail_electric rail_fast ship" speed="7.13" length="2.67" shape="932.28,244.70 932.39,247.37"/>
    </edge>
    <edge id=":27_8" function="internal">
        <lane id=":27_8_0" index="0" disallow="tram rail_urban rail rail_electric rail_fast ship" speed="3.65" length="1.44" shape="932.28,244.70 931.80,246.06"/>
    </edge>
    <edge id=":27_10" function="internal">
        <lane id=":27_10_0" index="0" disallow="tram rail_urban rail rail_electric rail_fast ship" speed="7.13" length="9.25" shape="932.39,247.37 931.20,249.46 928.71,250.99 924.92,251.95"/>
    </edge>
    <edge id=":27_11" function="internal">
        <lane id=":27_11_0" index="0" disallow="tram rail_urban rail rail_electric rail_fast ship" speed="3.65" length="3.23" shape="931.80,246.06 931.13,246.65 930.25,246.46 929.18,245.50"/>
    </edge>
    <edge id=":3_0" function="internal">
        <lane id=":3_0_0" index="0" disallow="tram rail_urban rail rail_electric rail_fast ship" speed="27.78" length="8.19" shape="146.32,724.04 146.20,721.63 145.74,720.00 145.30,718.36 145.22,715.96"/>
        <lane id=":3_0_1" index="1" disallow="tram rail_urban rail rail_electric rail_fast ship" speed="27.78" length="8.19" shape="146.32,724.04 146.69,721.67 147.34,720.11 147.99,718.55 148.41,716.18"/>
    </edge>
    <edge id=":31_0" function="internal">
        <lane id=":31_0_0" index="0" disallow="tram rail_urban rail rail_electric rail_fast ship" speed="6.45" length="9.03" shape="196.63,361.35 196.70,363.84 197.55,365.68 199.18,366.89 201.60,367.45"/>
    </edge>
    <edge id=":31_1" function="internal">
        <lane id=":31_1_0" index="0" disallow="tram rail_urban rail rail_electric rail_fast ship" speed="27.78" length="11.24" shape="196.63,361.35 195.47,372.53"/>
    </edge>
    <edge id=":32_0" function="internal">
        <lane id=":32_0_0" index="0" disallow="tram rail_urban rail rail_electric rail_fast ship" speed="6.51" length="9.03" shape="235.58,369.58 238.04,369.38 239.85,368.44 241.01,366.75 241.50,364.33"/>
    </edge>
    <edge id=":32_1" function="internal">
        <lane id=":32_1_0" index="0" disallow="tram rail_urban rail rail_electric rail_fast ship" speed="11.11" length="11.06" shape="235.58,369.58 246.57,370.72"/>
    </edge>
    <edge id=":33_0" function="internal">
        <lane id=":33_0_0" index="0" disallow="tram rail_urban rail rail_electric rail_fast ship" speed="8.33" length="11.44" shape="279.14,375.45 282.30,375.88 284.79,376.32 287.25,376.89 290.33,377.74"/>
    </edge>
    <edge id=":33_1" function="internal">
        <lane id=":33_1_0" index="0" disallow="tram rail_urban rail rail_electric rail_fast ship" speed="6.33" length="9.04" shape="279.14,375.45 281.55,376.12 283.11,377.40 283.80,379.29 283.63,381.79"/>
    </edge>
    <edge id=":34_0" function="internal">
        <lane id=":34_0_0" index="0" disallow="tram rail_urban rail rail_electric rail_fast ship" speed="6.51" length="8.81" shape="331.27,383.80 330.81,386.16 331.20,388.12 332.44,389.69 334.54,390.86"/>
    </edge>
    <edge id=":34_1" function="internal">
        <lane id=":34_1_0" index="0" disallow="tram rail_urban rail rail_electric rail_fast ship" speed="8.33" length="10.78" shape="324.32,387.43 327.29,388.29 329.49,388.99 331.65,389.76 334.54,390.86"/>
    </edge>
    <edge id=":35_0" function="internal">
        <lane id=":35_0_0" index="0" disallow="tram rail_urban rail rail_electric rail_fast ship" speed="6.54" length="8.63" shape="256.37,508.96 256.20,511.32 256.79,513.21 258.15,514.63 260.27,515.59"/>
    </edge>
    <edge id=":35_1" function="internal">
        <lane id=":35_1_0" index="0" disallow="tram rail_urban rail rail_electric rail_fast ship" speed="8.33" length="10.50" shape="250.06,513.15 253.05,513.73 255.21,514.20 257.34,514.75 260.27,515.59"/>
    </edge>
    <edge id=":36_0" function="internal">
        <lane id=":36_0_0" index="0" disallow="tram rail_urban rail rail_electric rail_fast ship" speed="6.99" length="9.62" shape="334.08,538.30 331.36,537.96 329.14,538.45 327.42,539.75 326.20,541.87"/>
    </edge>
    <edge id=":36_1" function="internal">
        <lane id=":36_1_0" index="0" disallow="tram rail_urban rail rail_electric rail_fast ship" speed="7.82" length="14.63" shape="334.08,538.30 330.31,536.76 328.07,534.40 327.38,531.24 328.24,527.27"/>
    </edge>
    <edge id=":36_2" function="internal">
        <lane id=":36_2_0" index="0" disallow="tram rail_urban rail rail_electric rail_fast ship" speed="3.65" length="4.67" shape="334.08,538.30 333.11,537.23 332.92,536.36 333.50,535.68 334.86,535.20"/>
    </edge>
    <edge id=":36_3" function="internal">
        <lane id=":36_3_0" index="0" disallow="tram rail_urban rail rail_electric rail_fast ship" speed="6.28" length="9.05" shape="331.24,528.37 330.71,530.83 331.14,532.78 332.52,534.24 334.86,535.20"/>
    </edge>
    <edge id=":36_4" function="internal">
        <lane id=":36_4_0" index="0" disallow="tram rail_urban rail rail_electric rail_fast ship" speed="18.05" length="14.42" shape="331.24,528.37 326.20,541.87"/>
    </edge>
    <edge id=":36_5" function="internal">
        <lane id=":36_5_0" index="0" disallow="tram rail_urban rail rail_electric rail_fast ship" speed="3.65" length="1.44" shape="331.24,528.37 330.08,529.22"/>
    </edge>
    <edge id=":36_12" function="internal">
        <lane id=":36_12_0" index="0" disallow="tram rail_urban rail rail_electric rail_fast ship" speed="3.65" length="3.23" shape="330.08,529.22 329.19,529.32 328.58,528.67 328.24,527.27"/>
    </edge>
    <edge id=":36_6" function="internal">
        <lane id=":36_6_0" index="0" disallow="tram rail_urban rail rail_electric rail_fast ship" speed="7.35" length="11.08" shape="320.06,532.92 322.64,533.14 324.86,532.28 326.72,530.32 328.24,527.27"/>
    </edge>
    <edge id=":36_7" function="internal">
        <lane id=":36_7_0" index="0" disallow="tram rail_urban rail rail_electric rail_fast ship" speed="8.33" length="14.99" shape="320.06,532.92 323.72,533.67 327.45,534.11 331.18,534.52 334.86,535.20"/>
    </edge>
    <edge id=":36_8" function="internal">
        <lane id=":36_8_0" index="0" disallow="tram rail_urban rail rail_electric rail_fast ship" speed="7.34" length="12.58" shape="320.06,532.92 323.68,534.39 325.91,536.37 326.75,538.87 326.20,541.87"/>
    </edge>
    <edge id=":36_9" function="internal">
        <lane id=":36_9_0" index="0" disallow="tram rail_urban rail rail_electric rail_fast ship" speed="18.05" length="14.37" shape="323.21,540.73 328.24,527.27"/>
    </edge>
    <edge id=":36_10" function="internal">
        <lane id=":36_10_0" index="0" disallow="tram rail_urban rail rail_electric rail_fast ship" speed="8.41" length="3.84" shape="323.21,540.73 325.04,537.49 325.14,537.42"/>
    </edge>
    <edge id=":36_11" function="internal">
        <lane id=":36_11_0" index="0" disallow="tram rail_urban rail rail_electric rail_fast ship" speed="3.65" length="1.44" shape="323.21,540.73 324.39,539.90"/>
    </edge>
    <edge id=":36_13" function="internal">
        <lane id=":36_13_0" index="0" disallow="tram rail_urban rail rail_electric rail_fast ship" speed="8.41" length="10.51" shape="325.14,537.42 327.60,535.49 330.87,534.72 334.86,535.20"/>
    </edge>
    <edge id=":36_14" function="internal">
        <lane id=":36_14_0" index="0" disallow="tram rail_urban rail rail_electric rail_fast ship" speed="3.65" length="3.23" shape="324.39,539.90 325.28,539.81 325.88,540.47 326.20,541.87"/>
    </edge>
    <edge id=":37_0" function="internal">
        <lane id=":37_0_0" index="0" disallow="tram rail_urban rail rail_electric rail_fast ship" speed="22.22" length="11.34" shape="378.31,401.73 374.41,412.38"/>
    </edge>
    <edge id=":37_1" function="internal">
        <lane id=":37_1_0" index="0" disallow="tram rail_urban rail rail_electric rail_fast ship" speed="3.65" length="1.44" shape="378.31,401.73 377.16,402.60"/>
    </edge>
    <edge id=":37_6" function="internal">
        <lane id=":37_6_0" index="0" disallow="tram rail_urban rail rail_electric rail_fast ship" speed="3.65" length="3.23" shape="377.16,402.60 376.27,402.71 375.65,402.07 375.29,400.67"/>
    </edge>
    <edge id=":37_2" function="internal">
        <lane id=":37_2_0" index="0" disallow="tram rail_urban rail rail_electric rail_fast ship" speed="6.41" length="9.04" shape="368.15,403.92 370.57,404.51 372.57,404.16 374.14,402.88 375.29,400.67"/>
    </edge>
    <edge id=":37_3" function="internal">
        <lane id=":37_3_0" index="0" disallow="tram rail_urban rail rail_electric rail_fast ship" speed="7.38" length="11.78" shape="368.15,403.92 371.63,405.69 373.83,407.68 374.76,409.92 374.41,412.38"/>
    </edge>
    <edge id=":37_4" function="internal">
        <lane id=":37_4_0" index="0" disallow="tram rail_urban rail rail_electric rail_fast ship" speed="22.22" length="11.25" shape="371.42,411.24 375.29,400.67"/>
    </edge>
    <edge id=":37_5" function="internal">
        <lane id=":37_5_0" index="0" disallow="tram rail_urban rail rail_electric rail_fast ship" speed="3.65" length="1.44" shape="371.42,411.24 372.60,410.40"/>
    </edge>
    <edge id=":37_7" function="internal">
        <lane id=":37_7_0" index="0" disallow="tram rail_urban rail rail_electric rail_fast ship" speed="3.65" length="3.23" shape="372.60,410.40 373.49,410.31 374.09,410.97 374.41,412.38"/>
    </edge>
    <edge id=":38_0" function="internal">
        <lane id=":38_0_0" index="0" disallow="tram rail_urban rail rail_electric rail_fast ship" speed="6.58" length="8.78" shape="496.12,384.02 495.65,386.31 496.02,388.26 497.25,389.87 499.32,391.15"/>
    </edge>
    <edge id=":38_1" function="internal">