<?xml version="1.0" encoding="UTF-8"?>

<!-- generated on 2022-04-12 17:47:57 by Eclipse SUMO netconvert Version 1.12.0
<configuration xmlns:xsi="http://www.w3.org/2001/XMLSchema-instance" xsi:noNamespaceSchemaLocation="http://sumo.dlr.de/xsd/netconvertConfiguration.xsd">

    <input>
        <osm-files value="/home/svadlmat/UTC/Project/Maps/osm/filtered/Dublin_filtered.osm"/>
    </input>

    <output>
        <output-file value="/home/svadlmat/UTC/Project/Maps/sumo/Dublin.net.xml"/>
    </output>

    <projection>
        <proj.utm value="true"/>
    </projection>

    <processing>
        <numerical-ids.node-start value="0"/>
        <numerical-ids.edge-start value="0"/>
        <geometry.remove value="true"/>
        <roundabouts.guess value="true"/>
    </processing>

    <ramp_guessing>
        <ramps.guess value="true"/>
    </ramp_guessing>

    <edge_removal>
        <keep-edges value="1"/>
        <remove-edges.isolated value="true"/>
    </edge_removal>

    <junctions>
        <junctions.join value="true"/>
    </junctions>

    <report>
        <aggregate-warnings value="5"/>
    </report>

</configuration>
-->

<net version="1.9" junctionCornerDetail="5" limitTurnSpeed="5.50" xmlns:xsi="http://www.w3.org/2001/XMLSchema-instance" xsi:noNamespaceSchemaLocation="http://sumo.dlr.de/xsd/net_file.xsd">

    <location netOffset="-682452.93,-5911439.35" convBoundary="0.00,0.00,3056.07,2750.97" origBoundary="-6.260046,53.319970,-6.213436,53.344624" projParameter="+proj=utm +zone=29 +ellps=WGS84 +datum=WGS84 +units=m +no_defs"/>

    <type id="highway.bridleway" priority="1" numLanes="1" speed="2.78" allow="pedestrian" oneway="1" width="2.00"/>
    <type id="highway.bus_guideway" priority="1" numLanes="1" speed="27.78" allow="bus" oneway="1"/>
    <type id="highway.cycleway" priority="1" numLanes="1" speed="8.33" allow="bicycle" oneway="0" width="1.00"/>
    <type id="highway.footway" priority="1" numLanes="1" speed="2.78" allow="pedestrian" oneway="1" width="2.00"/>
    <type id="highway.ford" priority="1" numLanes="1" speed="2.78" allow="army" oneway="0"/>
    <type id="highway.living_street" priority="2" numLanes="1" speed="2.78" disallow="tram rail_urban rail rail_electric rail_fast ship" oneway="0"/>
    <type id="highway.motorway" priority="14" numLanes="2" speed="39.44" allow="private emergency authority army vip passenger hov taxi bus coach delivery truck trailer motorcycle evehicle custom1 custom2" oneway="1"/>
    <type id="highway.motorway_link" priority="9" numLanes="1" speed="22.22" allow="private emergency authority army vip passenger hov taxi bus coach delivery truck trailer motorcycle evehicle custom1 custom2" oneway="1"/>
    <type id="highway.path" priority="1" numLanes="1" speed="2.78" allow="pedestrian bicycle" oneway="0" width="2.00"/>
    <type id="highway.pedestrian" priority="1" numLanes="1" speed="2.78" allow="pedestrian" oneway="1" width="2.00"/>
    <type id="highway.primary" priority="12" numLanes="2" speed="27.78" disallow="tram rail_urban rail rail_electric rail_fast ship" oneway="0"/>
    <type id="highway.primary_link" priority="7" numLanes="1" speed="22.22" disallow="tram rail_urban rail rail_electric rail_fast ship" oneway="0"/>
    <type id="highway.raceway" priority="15" numLanes="2" speed="83.33" allow="vip" oneway="0"/>
    <type id="highway.residential" priority="3" numLanes="1" speed="13.89" disallow="tram rail_urban rail rail_electric rail_fast ship" oneway="0"/>
    <type id="highway.secondary" priority="11" numLanes="1" speed="27.78" disallow="tram rail_urban rail rail_electric rail_fast ship" oneway="0"/>
    <type id="highway.secondary_link" priority="6" numLanes="1" speed="22.22" disallow="tram rail_urban rail rail_electric rail_fast ship" oneway="0"/>
    <type id="highway.service" priority="1" numLanes="1" speed="5.56" allow="pedestrian delivery bicycle" oneway="0"/>
    <type id="highway.stairs" priority="1" numLanes="1" speed="1.39" allow="pedestrian" oneway="1" width="2.00"/>
    <type id="highway.step" priority="1" numLanes="1" speed="1.39" allow="pedestrian" oneway="1" width="2.00"/>
    <type id="highway.steps" priority="1" numLanes="1" speed="1.39" allow="pedestrian" oneway="1" width="2.00"/>
    <type id="highway.tertiary" priority="10" numLanes="1" speed="22.22" disallow="tram rail_urban rail rail_electric rail_fast ship" oneway="0"/>
    <type id="highway.tertiary_link" priority="5" numLanes="1" speed="22.22" disallow="tram rail_urban rail rail_electric rail_fast ship" oneway="0"/>
    <type id="highway.track" priority="1" numLanes="1" speed="5.56" allow="pedestrian motorcycle moped bicycle" oneway="0"/>
    <type id="highway.trunk" priority="13" numLanes="2" speed="27.78" disallow="pedestrian bicycle tram rail_urban rail rail_electric rail_fast ship" oneway="0"/>
    <type id="highway.trunk_link" priority="8" numLanes="1" speed="22.22" disallow="pedestrian bicycle tram rail_urban rail rail_electric rail_fast ship" oneway="0"/>
    <type id="highway.unclassified" priority="4" numLanes="1" speed="13.89" disallow="tram rail_urban rail rail_electric rail_fast ship" oneway="0"/>
    <type id="highway.unsurfaced" priority="1" numLanes="1" speed="8.33" disallow="tram rail_urban rail rail_electric rail_fast ship" oneway="0"/>
    <type id="railway.highspeed" priority="21" numLanes="1" speed="69.44" allow="rail_fast" oneway="1"/>
    <type id="railway.light_rail" priority="19" numLanes="1" speed="27.78" allow="rail_urban" oneway="1"/>
    <type id="railway.preserved" priority="16" numLanes="1" speed="27.78" allow="rail" oneway="1"/>
    <type id="railway.rail" priority="20" numLanes="1" speed="44.44" allow="rail" oneway="1"/>
    <type id="railway.subway" priority="18" numLanes="1" speed="27.78" allow="rail_urban" oneway="1"/>
    <type id="railway.tram" priority="17" numLanes="1" speed="13.89" allow="tram" oneway="1"/>

    <edge id=":0_0" function="internal">
        <lane id=":0_0_0" index="0" disallow="tram rail_urban rail rail_electric rail_fast ship" speed="3.65" length="4.67" shape="809.79,2440.67 809.31,2442.03 808.63,2442.62 807.76,2442.43 806.69,2441.46"/>
    </edge>
    <edge id=":1_0" function="internal">
        <lane id=":1_0_0" index="0" disallow="tram rail_urban rail rail_electric rail_fast ship" speed="6.45" length="9.03" shape="796.78,2359.83 796.21,2357.42 795.00,2355.78 793.15,2354.94 790.67,2354.88"/>
    </edge>
    <edge id=":1_1" function="internal">
        <lane id=":1_1_0" index="0" disallow="tram rail_urban rail rail_electric rail_fast ship" speed="8.11" length="14.23" shape="796.78,2359.83 796.97,2355.92 798.33,2352.96 800.86,2350.98 804.56,2349.96"/>
    </edge>
    <edge id=":1_2" function="internal">
        <lane id=":1_2_0" index="0" disallow="tram rail_urban rail rail_electric rail_fast ship" speed="3.65" length="4.67" shape="796.78,2359.83 797.47,2358.57 798.23,2358.10 799.07,2358.42 799.97,2359.54"/>
    </edge>
    <edge id=":1_3" function="internal">
        <lane id=":1_3_0" index="0" disallow="tram rail_urban rail rail_electric rail_fast ship" speed="6.64" length="9.19" shape="804.96,2353.13 802.58,2353.79 800.96,2355.08 800.09,2357.00 799.97,2359.54"/>
    </edge>
    <edge id=":1_4" function="internal">
        <lane id=":1_4_0" index="0" disallow="tram rail_urban rail rail_electric rail_fast ship" speed="8.33" length="14.39" shape="804.96,2353.13 790.67,2354.88"/>
    </edge>
    <edge id=":1_5" function="internal">
        <lane id=":1_5_0" index="0" disallow="tram rail_urban rail rail_electric rail_fast ship" speed="3.65" length="1.44" shape="804.96,2353.13 803.67,2352.49"/>
    </edge>
    <edge id=":1_9" function="internal">
        <lane id=":1_9_0" index="0" disallow="tram rail_urban rail rail_electric rail_fast ship" speed="3.65" length="3.23" shape="803.67,2352.49 803.17,2351.75 803.47,2350.90 804.56,2349.96"/>
    </edge>
    <edge id=":1_6" function="internal">
        <lane id=":1_6_0" index="0" disallow="tram rail_urban rail rail_electric rail_fast ship" speed="8.33" length="14.37" shape="790.29,2351.70 804.56,2349.96"/>
    </edge>
    <edge id=":1_7" function="internal">
        <lane id=":1_7_0" index="0" disallow="tram rail_urban rail rail_electric rail_fast ship" speed="7.95" length="4.07" shape="790.29,2351.70 794.22,2351.80 794.34,2351.85"/>
    </edge>
    <edge id=":1_8" function="internal">
        <lane id=":1_8_0" index="0" disallow="tram rail_urban rail rail_electric rail_fast ship" speed="3.65" length="1.44" shape="790.29,2351.70 791.58,2352.35"/>
    </edge>
    <edge id=":1_10" function="internal">
        <lane id=":1_10_0" index="0" disallow="tram rail_urban rail rail_electric rail_fast ship" speed="7.95" length="10.23" shape="794.34,2351.85 797.15,2353.13 799.06,2355.72 799.97,2359.54"/>
    </edge>
    <edge id=":1_11" function="internal">
        <lane id=":1_11_0" index="0" disallow="tram rail_urban rail rail_electric rail_fast ship" speed="3.65" length="3.23" shape="791.58,2352.35 792.07,2353.10 791.77,2353.94 790.67,2354.88"/>
    </edge>
    <edge id=":10_0" function="internal">
        <lane id=":10_0_0" index="0" disallow="tram rail_urban rail rail_electric rail_fast ship" speed="13.89" length="13.92" shape="940.49,892.12 928.55,899.17"/>
        <lane id=":10_0_1" index="1" disallow="tram rail_urban rail rail_electric rail_fast ship" speed="13.89" length="13.92" shape="938.91,889.34 926.87,896.45"/>
    </edge>
    <edge id=":10_2" function="internal">
        <lane id=":10_2_0" index="0" disallow="tram rail_urban rail rail_electric rail_fast ship" speed="9.29" length="2.87" shape="938.91,889.34 936.15,890.12"/>
    </edge>
    <edge id=":10_3" function="internal">
        <lane id=":10_3_0" index="0" disallow="tram rail_urban rail rail_electric rail_fast ship" speed="3.65" length="1.44" shape="938.91,889.34 937.47,889.23"/>
    </edge>
    <edge id=":10_12" function="internal">
        <lane id=":10_12_0" index="0" disallow="tram rail_urban rail rail_electric rail_fast ship" speed="9.29" length="16.90" shape="936.15,890.12 935.02,890.44 931.20,889.31 927.46,885.94 923.78,880.33"/>
    </edge>
    <edge id=":10_13" function="internal">
        <lane id=":10_13_0" index="0" disallow="tram rail_urban rail rail_electric rail_fast ship" speed="3.65" length="3.23" shape="937.47,889.23 936.73,888.74 936.68,887.84 937.33,886.55"/>
    </edge>
    <edge id=":10_4" function="internal">
        <lane id=":10_4_0" index="0" disallow="tram rail_urban rail rail_electric rail_fast ship" speed="6.46" length="9.03" shape="926.60,878.81 928.08,880.80 929.83,881.83 931.87,881.89 934.18,880.99"/>
    </edge>
    <edge id=":10_5" function="internal">
        <lane id=":10_5_0" index="0" disallow="tram rail_urban rail rail_electric rail_fast ship" speed="9.48" length="19.43" shape="926.60,878.81 929.32,884.92 930.28,889.89 929.46,893.73 926.87,896.45"/>
    </edge>
    <edge id=":10_6" function="internal">
        <lane id=":10_6_0" index="0" disallow="tram rail_urban rail rail_electric rail_fast ship" speed="3.65" length="4.67" shape="926.60,878.81 926.47,880.24 925.95,880.98 925.06,881.00 923.78,880.33"/>
    </edge>
    <edge id=":10_7" function="internal">
        <lane id=":10_7_0" index="0" disallow="tram rail_urban rail rail_electric rail_fast ship" speed="6.70" length="9.22" shape="921.83,888.28 923.71,886.69 924.66,884.84 924.69,882.72 923.78,880.33"/>
    </edge>
    <edge id=":10_8" function="internal">
        <lane id=":10_8_0" index="0" disallow="tram rail_urban rail rail_electric rail_fast ship" speed="13.89" length="14.22" shape="921.83,888.28 934.18,880.99"/>
        <lane id=":10_8_1" index="1" disallow="tram rail_urban rail rail_electric rail_fast ship" speed="13.89" length="14.22" shape="923.51,891.00 935.76,883.77"/>
        <lane id=":10_8_2" index="2" disallow="tram rail_urban rail rail_electric rail_fast ship" speed="13.89" length="14.22" shape="925.19,893.72 937.33,886.55"/>
    </edge>
    <edge id=":10_11" function="internal">
        <lane id=":10_11_0" index="0" disallow="tram rail_urban rail rail_electric rail_fast ship" speed="3.65" length="1.44" shape="925.19,893.72 926.63,893.77"/>
    </edge>
    <edge id=":10_14" function="internal">
        <lane id=":10_14_0" index="0" disallow="tram rail_urban rail rail_electric rail_fast ship" speed="3.65" length="3.23" shape="926.63,893.77 927.39,894.24 927.47,895.13 926.87,896.45"/>
    </edge>
    <edge id=":100_0" function="internal">
        <lane id=":100_0_0" index="0" disallow="tram rail_urban rail rail_electric rail_fast ship" speed="6.88" length="9.54" shape="2276.50,2346.32 2274.25,2344.81 2272.08,2344.26 2269.99,2344.69 2267.97,2346.10"/>
    </edge>
    <edge id=":100_1" function="internal">
        <lane id=":100_1_0" index="0" disallow="tram rail_urban rail rail_electric rail_fast ship" speed="7.83" length="14.60" shape="2276.50,2346.32 2273.86,2343.24 2272.94,2340.13 2273.76,2337.00 2276.30,2333.83"/>
    </edge>
    <edge id=":100_2" function="internal">
        <lane id=":100_2_0" index="0" disallow="tram rail_urban rail rail_electric rail_fast ship" speed="3.65" length="4.67" shape="2276.50,2346.32 2276.12,2344.93 2276.35,2344.06 2277.17,2343.72 2278.60,2343.91"/>
    </edge>
    <edge id=":100_3" function="internal">
        <lane id=":100_3_0" index="0" disallow="tram rail_urban rail rail_electric rail_fast ship" speed="6.30" length="9.04" shape="2278.48,2336.18 2276.91,2338.14 2276.40,2340.08 2276.97,2342.00 2278.60,2343.91"/>
    </edge>
    <edge id=":100_4" function="internal">
        <lane id=":100_4_0" index="0" disallow="tram rail_urban rail rail_electric rail_fast ship" speed="13.89" length="14.45" shape="2278.48,2336.18 2267.97,2346.10"/>
    </edge>
    <edge id=":100_5" function="internal">
        <lane id=":100_5_0" index="0" disallow="tram rail_urban rail rail_electric rail_fast ship" speed="3.65" length="1.44" shape="2278.48,2336.18 2277.06,2336.41"/>
    </edge>
    <edge id=":100_9" function="internal">
        <lane id=":100_9_0" index="0" disallow="tram rail_urban rail rail_electric rail_fast ship" speed="3.65" length="3.23" shape="2277.06,2336.41 2276.22,2336.10 2275.97,2335.24 2276.30,2333.83"/>
    </edge>
    <edge id=":100_6" function="internal">
        <lane id=":100_6_0" index="0" disallow="tram rail_urban rail rail_electric rail_fast ship" speed="13.89" length="14.50" shape="2265.76,2343.79 2276.30,2333.83"/>
    </edge>
    <edge id=":100_7" function="internal">
        <lane id=":100_7_0" index="0" disallow="tram rail_urban rail rail_electric rail_fast ship" speed="8.32" length="3.98" shape="2265.76,2343.79 2268.84,2341.62 2269.04,2341.57"/>
    </edge>
    <edge id=":100_8" function="internal">
        <lane id=":100_8_0" index="0" disallow="tram rail_urban rail rail_electric rail_fast ship" speed="3.65" length="1.44" shape="2265.76,2343.79 2267.18,2343.53"/>
    </edge>
    <edge id=":100_10" function="internal">
        <lane id=":100_10_0" index="0" disallow="tram rail_urban rail rail_electric rail_fast ship" speed="8.32" length="10.40" shape="2269.04,2341.57 2272.00,2340.91 2275.26,2341.68 2278.60,2343.91"/>
    </edge>
    <edge id=":100_11" function="internal">
        <lane id=":100_11_0" index="0" disallow="tram rail_urban rail rail_electric rail_fast ship" speed="3.65" length="3.23" shape="2267.18,2343.53 2268.02,2343.84 2268.29,2344.69 2267.97,2346.10"/>
    </edge>
    <edge id=":101_0" function="internal">
        <lane id=":101_0_0" index="0" disallow="tram rail_urban rail rail_electric rail_fast ship" speed="13.89" length="15.08" shape="2250.51,2484.67 2238.94,2494.34"/>
    </edge>
    <edge id=":101_1" function="internal">
        <lane id=":101_1_0" index="0" disallow="tram rail_urban rail rail_electric rail_fast ship" speed="10.31" length="3.51" shape="2250.51,2484.67 2247.59,2486.34 2247.45,2486.36"/>
    </edge>
    <edge id=":101_2" function="internal">
        <lane id=":101_2_0" index="0" disallow="tram rail_urban rail rail_electric rail_fast ship" speed="3.65" length="1.44" shape="2250.51,2484.67 2249.08,2484.81"/>
    </edge>
    <edge id=":101_9" function="internal">
        <lane id=":101_9_0" index="0" disallow="tram rail_urban rail rail_electric rail_fast ship" speed="10.31" length="11.91" shape="2247.45,2486.36 2244.17,2486.95 2240.26,2486.52 2235.86,2485.03"/>
    </edge>
    <edge id=":101_10" function="internal">
        <lane id=":101_10_0" index="0" disallow="tram rail_urban rail rail_electric rail_fast ship" speed="3.65" length="3.23" shape="2249.08,2484.81 2248.26,2484.44 2248.07,2483.57 2248.49,2482.19"/>
    </edge>
    <edge id=":101_3" function="internal">
        <lane id=":101_3_0" index="0" disallow="tram rail_urban rail rail_electric rail_fast ship" speed="9.12" length="11.92" shape="2237.13,2482.09 2240.65,2483.32 2243.72,2483.74 2246.33,2483.37 2248.49,2482.19"/>
    </edge>
    <edge id=":101_4" function="internal">
        <lane id=":101_4_0" index="0" disallow="tram rail_urban rail rail_electric rail_fast ship" speed="7.44" length="16.38" shape="2237.13,2482.09 2241.28,2484.61 2242.97,2487.49 2242.18,2490.73 2238.94,2494.34"/>
    </edge>
    <edge id=":101_5" function="internal">
        <lane id=":101_5_0" index="0" disallow="tram rail_urban rail rail_electric rail_fast ship" speed="3.65" length="4.67" shape="2237.13,2482.09 2237.91,2483.30 2237.96,2484.20 2237.28,2484.77 2235.86,2485.03"/>
    </edge>
    <edge id=":101_6" function="internal">
        <lane id=":101_6_0" index="0" disallow="tram rail_urban rail rail_electric rail_fast ship" speed="5.74" length="9.18" shape="2236.87,2491.89 2238.69,2489.87 2239.13,2488.05 2238.18,2486.44 2235.86,2485.03"/>
    </edge>
    <edge id=":101_7" function="internal">
        <lane id=":101_7_0" index="0" disallow="tram rail_urban rail rail_electric rail_fast ship" speed="13.89" length="15.13" shape="2236.87,2491.89 2248.49,2482.19"/>
    </edge>
    <edge id=":101_8" function="internal">
        <lane id=":101_8_0" index="0" disallow="tram rail_urban rail rail_electric rail_fast ship" speed="3.65" length="1.44" shape="2236.87,2491.89 2238.30,2491.73"/>
    </edge>
    <edge id=":101_11" function="internal">
        <lane id=":101_11_0" index="0" disallow="tram rail_urban rail rail_electric rail_fast ship" speed="3.65" length="3.23" shape="2238.30,2491.73 2239.13,2492.08 2239.34,2492.95 2238.94,2494.34"/>
    </edge>
    <edge id=":102_0" function="internal">
        <lane id=":102_0_0" index="0" disallow="tram rail_urban rail rail_electric rail_fast ship" speed="8.33" length="13.28" shape="922.10,1264.80 921.39,1261.39 920.52,1258.36 919.43,1255.39 918.05,1252.19"/>
    </edge>
    <edge id=":102_1" function="internal">
        <lane id=":102_1_0" index="0" disallow="tram rail_urban rail rail_electric rail_fast ship" speed="8.06" length="14.21" shape="922.10,1264.80 921.90,1260.71 922.91,1257.57 925.13,1255.35 928.58,1254.07"/>
    </edge>
    <edge id=":102_2" function="internal">
        <lane id=":102_2_0" index="0" disallow="tram rail_urban rail rail_electric rail_fast ship" speed="3.65" length="4.67" shape="922.10,1264.80 922.68,1263.47 923.39,1262.94 924.25,1263.19 925.25,1264.23"/>
    </edge>
    <edge id=":102_3" function="internal">
        <lane id=":102_3_0" index="0" disallow="tram rail_urban rail rail_electric rail_fast ship" speed="6.81" length="9.84" shape="930.09,1257.04 927.57,1257.93 925.92,1259.42 925.15,1261.52 925.25,1264.23"/>
    </edge>
    <edge id=":102_4" function="internal">
        <lane id=":102_4_0" index="0" disallow="tram rail_urban rail rail_electric rail_fast ship" speed="8.33" length="14.13" shape="930.09,1257.04 925.95,1257.41 922.57,1256.73 919.93,1254.99 918.05,1252.19"/>
    </edge>
    <edge id=":102_5" function="internal">
        <lane id=":102_5_0" index="0" disallow="tram rail_urban rail rail_electric rail_fast ship" speed="3.70" length="4.85" shape="930.09,1257.04 928.60,1256.86 927.86,1256.31 927.85,1255.38 928.58,1254.07"/>
    </edge>
    <edge id=":102_6" function="internal">
        <lane id=":102_6_0" index="0" disallow="tram rail_urban rail rail_electric rail_fast ship" speed="7.08" length="9.00" shape="920.97,1250.87 922.18,1252.70 923.85,1253.84 925.99,1254.30 928.58,1254.07"/>
    </edge>
    <edge id=":102_7" function="internal">
        <lane id=":102_7_0" index="0" disallow="tram rail_urban rail rail_electric rail_fast ship" speed="8.33" length="14.06" shape="920.97,1250.87 922.38,1254.19 923.55,1257.41 924.50,1260.70 925.25,1264.23"/>
    </edge>
    <edge id=":102_8" function="internal">
        <lane id=":102_8_0" index="0" disallow="tram rail_urban rail rail_electric rail_fast ship" speed="3.65" length="4.67" shape="920.97,1250.87 920.74,1252.29 920.17,1252.99 919.28,1252.95 918.05,1252.19"/>
    </edge>
    <edge id=":103_0" function="internal">
        <lane id=":103_0_0" index="0" disallow="tram rail_urban rail rail_electric rail_fast ship" speed="8.33" length="14.72" shape="1533.45,2303.77 1532.06,2289.12"/>
    </edge>
    <edge id=":103_1" function="internal">
        <lane id=":103_1_0" index="0" disallow="tram rail_urban rail rail_electric rail_fast ship" speed="8.33" length="3.73" shape="1533.45,2303.77 1533.67,2300.24 1533.75,2300.07"/>
    </edge>
    <edge id=":103_2" function="internal">
        <lane id=":103_2_0" index="0" disallow="tram rail_urban rail rail_electric rail_fast ship" speed="3.65" length="1.44" shape="1533.45,2303.77 1534.13,2302.50"/>
    </edge>
    <edge id=":103_9" function="internal">
        <lane id=":103_9_0" index="0" disallow="tram rail_urban rail rail_electric rail_fast ship" speed="8.33" length="11.10" shape="1533.75,2300.07 1535.09,2297.21 1537.70,2294.68 1541.51,2292.66"/>
    </edge>
    <edge id=":103_10" function="internal">
        <lane id=":103_10_0" index="0" disallow="tram rail_urban rail rail_electric rail_fast ship" speed="3.65" length="3.23" shape="1534.13,2302.50 1534.88,2302.02 1535.72,2302.34 1536.64,2303.45"/>
    </edge>
    <edge id=":103_3" function="internal">
        <lane id=":103_3_0" index="0" disallow="tram rail_urban rail rail_electric rail_fast ship" speed="7.85" length="10.68" shape="1542.70,2295.63 1539.85,2297.11 1537.89,2298.91 1536.82,2301.02 1536.64,2303.45"/>
    </edge>
    <edge id=":103_4" function="internal">
        <lane id=":103_4_0" index="0" disallow="tram rail_urban rail rail_electric rail_fast ship" speed="7.58" length="15.44" shape="1542.70,2295.63 1538.40,2296.68 1535.19,2295.95 1533.08,2293.43 1532.06,2289.12"/>
    </edge>
    <edge id=":103_5" function="internal">
        <lane id=":103_5_0" index="0" disallow="tram rail_urban rail rail_electric rail_fast ship" speed="3.65" length="4.67" shape="1542.70,2295.63 1541.29,2295.33 1540.62,2294.74 1540.69,2293.85 1541.51,2292.66"/>
    </edge>
    <edge id=":103_6" function="internal">
        <lane id=":103_6_0" index="0" disallow="tram rail_urban rail rail_electric rail_fast ship" speed="5.97" length="9.09" shape="1535.24,2288.83 1535.84,2291.37 1537.09,2292.85 1538.98,2293.28 1541.51,2292.66"/>
    </edge>
    <edge id=":103_7" function="internal">
        <lane id=":103_7_0" index="0" disallow="tram rail_urban rail rail_electric rail_fast ship" speed="8.33" length="14.69" shape="1535.24,2288.83 1536.64,2303.45"/>
    </edge>
    <edge id=":103_8" function="internal">
        <lane id=":103_8_0" index="0" disallow="tram rail_urban rail rail_electric rail_fast ship" speed="3.65" length="1.44" shape="1535.24,2288.83 1534.56,2290.10"/>
    </edge>
    <edge id=":103_11" function="internal">
        <lane id=":103_11_0" index="0" disallow="tram rail_urban rail rail_electric rail_fast ship" speed="3.65" length="3.23" shape="1534.56,2290.10 1533.79,2290.57 1532.96,2290.24 1532.06,2289.12"/>
    </edge>
    <edge id=":104_0" function="internal">
        <lane id=":104_0_0" index="0" disallow="tram rail_urban rail rail_electric rail_fast ship" speed="6.97" length="9.60" shape="1826.44,2298.12 1825.35,2295.91 1823.72,2294.49 1821.55,2293.87 1818.83,2294.05"/>
    </edge>
    <edge id=":104_1" function="internal">
        <lane id=":104_1_0" index="0" disallow="tram rail_urban rail rail_electric rail_fast ship" speed="13.89" length="14.37" shape="1826.44,2298.12 1822.45,2284.32"/>
    </edge>
    <edge id=":104_2" function="internal">
        <lane id=":104_2_0" index="0" disallow="tram rail_urban rail rail_electric rail_fast ship" speed="3.65" length="1.44" shape="1826.44,2298.12 1826.84,2296.74"/>
    </edge>
    <edge id=":104_9" function="internal">
        <lane id=":104_9_0" index="0" disallow="tram rail_urban rail rail_electric rail_fast ship" speed="3.65" length="3.23" shape="1826.84,2296.74 1827.49,2296.12 1828.37,2296.26 1829.49,2297.17"/>
    </edge>
    <edge id=":104_3" function="internal">
        <lane id=":104_3_0" index="0" disallow="tram rail_urban rail rail_electric rail_fast ship" speed="13.89" length="14.24" shape="1825.54,2283.49 1829.49,2297.17"/>
    </edge>
    <edge id=":104_4" function="internal">
        <lane id=":104_4_0" index="0" disallow="tram rail_urban rail rail_electric rail_fast ship" speed="7.89" length="3.99" shape="1825.54,2283.49 1826.01,2287.46"/>
    </edge>
    <edge id=":104_5" function="internal">
        <lane id=":104_5_0" index="0" disallow="tram rail_urban rail rail_electric rail_fast ship" speed="3.65" length="1.44" shape="1825.54,2283.49 1825.08,2284.86"/>
    </edge>
    <edge id=":104_10" function="internal">
        <lane id=":104_10_0" index="0" disallow="tram rail_urban rail rail_electric rail_fast ship" speed="7.89" length="10.51" shape="1826.01,2287.46 1825.04,2290.54 1822.65,2292.73 1818.83,2294.05"/>
    </edge>
    <edge id=":104_11" function="internal">
        <lane id=":104_11_0" index="0" disallow="tram rail_urban rail rail_electric rail_fast ship" speed="3.65" length="3.23" shape="1825.08,2284.86 1824.41,2285.45 1823.53,2285.27 1822.45,2284.32"/>
    </edge>
    <edge id=":104_6" function="internal">
        <lane id=":104_6_0" index="0" disallow="tram rail_urban rail rail_electric rail_fast ship" speed="6.36" length="9.03" shape="1818.28,2290.90 1820.66,2290.08 1822.14,2288.71 1822.74,2286.79 1822.45,2284.32"/>
    </edge>
    <edge id=":104_7" function="internal">
        <lane id=":104_7_0" index="0" disallow="tram rail_urban rail rail_electric rail_fast ship" speed="8.38" length="14.31" shape="1818.28,2290.90 1822.25,2290.66 1825.45,2291.62 1827.86,2293.79 1829.49,2297.17"/>
    </edge>
    <edge id=":104_8" function="internal">
        <lane id=":104_8_0" index="0" disallow="tram rail_urban rail rail_electric rail_fast ship" speed="3.65" length="4.67" shape="1818.28,2290.90 1819.60,2291.48 1820.13,2292.19 1819.88,2293.05 1818.83,2294.05"/>
    </edge>
    <edge id=":105_0" function="internal">
        <lane id=":105_0_0" index="0" disallow="tram rail_urban rail rail_electric rail_fast ship" speed="8.33" length="14.50" shape="1677.49,2286.19 1675.27,2271.87"/>
    </edge>
    <edge id=":105_1" function="internal">
        <lane id=":105_1_0" index="0" disallow="tram rail_urban rail rail_electric rail_fast ship" speed="8.01" length="14.24" shape="1677.49,2286.19 1677.41,2282.30 1678.60,2279.32 1681.06,2277.24 1684.80,2276.08"/>
    </edge>
    <edge id=":105_2" function="internal">
        <lane id=":105_2_0" index="0" disallow="tram rail_urban rail rail_electric rail_fast ship" speed="3.65" length="4.67" shape="1677.49,2286.19 1678.09,2284.88 1678.81,2284.35 1679.66,2284.62 1680.65,2285.67"/>
    </edge>
    <edge id=":105_3" function="internal">
        <lane id=":105_3_0" index="0" disallow="tram rail_urban rail rail_electric rail_fast ship" speed="6.52" length="9.07" shape="1685.32,2279.23 1682.93,2279.98 1681.36,2281.30 1680.60,2283.20 1680.65,2285.67"/>
    </edge>
    <edge id=":105_4" function="internal">
        <lane id=":105_4_0" index="0" disallow="tram rail_urban rail rail_electric rail_fast ship" speed="7.97" length="14.26" shape="1685.32,2279.23 1681.40,2279.31 1678.42,2278.11 1676.38,2275.63 1675.27,2271.87"/>
    </edge>
    <edge id=":105_5" function="internal">
        <lane id=":105_5_0" index="0" disallow="tram rail_urban rail rail_electric rail_fast ship" speed="3.65" length="4.67" shape="1685.32,2279.23 1684.00,2278.64 1683.48,2277.91 1683.75,2277.06 1684.80,2276.08"/>
    </edge>
    <edge id=":105_6" function="internal">
        <lane id=":105_6_0" index="0" disallow="tram rail_urban rail rail_electric rail_fast ship" speed="6.47" length="9.03" shape="1678.44,2271.41 1679.14,2273.79 1680.43,2275.36 1682.32,2276.12 1684.80,2276.08"/>
    </edge>
    <edge id=":105_7" function="internal">
        <lane id=":105_7_0" index="0" disallow="tram rail_urban rail rail_electric rail_fast ship" speed="8.33" length="14.43" shape="1678.44,2271.41 1680.65,2285.67"/>
    </edge>
    <edge id=":105_8" function="internal">
        <lane id=":105_8_0" index="0" disallow="tram rail_urban rail rail_electric rail_fast ship" speed="3.65" length="4.67" shape="1678.44,2271.41 1677.82,2272.71 1677.09,2273.22 1676.24,2272.94 1675.27,2271.87"/>
    </edge>
    <edge id=":106_0" function="internal">
        <lane id=":106_0_0" index="0" disallow="tram rail_urban rail rail_electric rail_fast ship" speed="8.33" length="14.34" shape="1671.67,2249.89 1669.03,2235.80"/>
    </edge>
    <edge id=":106_1" function="internal">
        <lane id=":106_1_0" index="0" disallow="tram rail_urban rail rail_electric rail_fast ship" speed="7.99" length="14.23" shape="1671.67,2249.89 1671.53,2245.99 1672.67,2242.99 1675.10,2240.89 1678.81,2239.70"/>
    </edge>
    <edge id=":106_2" function="internal">
        <lane id=":106_2_0" index="0" disallow="tram rail_urban rail rail_electric rail_fast ship" speed="3.65" length="4.67" shape="1671.67,2249.89 1672.24,2248.57 1672.96,2248.03 1673.82,2248.29 1674.82,2249.32"/>
    </edge>
    <edge id=":106_3" function="internal">