<?xml version="1.0" encoding="UTF-8"?>

<!-- generated on 2023-01-08 14:07:07 by Eclipse SUMO netedit Version 1.9.2
<configuration xmlns:xsi="http://www.w3.org/2001/XMLSchema-instance" xsi:noNamespaceSchemaLocation="http://sumo.dlr.de/xsd/netconvertConfiguration.xsd">

    <input>
        <sumo-net-file value="C:\Users\Mates\Desktop\maps\London.net.xml"/>
    </input>

    <output>
        <output-file value="C:\Users\Mates\Desktop\maps\London.net.xml"/>
    </output>

    <processing>
        <geometry.min-radius.fix.railways value="false"/>
        <geometry.max-grade.fix value="false"/>
        <offset.disable-normalization value="true"/>
        <lefthand value="false"/>
    </processing>

    <junctions>
        <no-turnarounds value="true"/>
        <junctions.corner-detail value="5"/>
        <junctions.limit-turn-speed value="5.5"/>
        <rectangular-lane-cut value="false"/>
    </junctions>

    <pedestrian>
        <walkingareas value="false"/>
    </pedestrian>

    <report>
        <aggregate-warnings value="5"/>
    </report>

</configuration>
-->

<net version="1.9" junctionCornerDetail="5" limitTurnSpeed="5.50" xmlns:xsi="http://www.w3.org/2001/XMLSchema-instance" xsi:noNamespaceSchemaLocation="http://sumo.dlr.de/xsd/net_file.xsd">

    <location netOffset="-700187.91,-5711400.31" convBoundary="0.00,0.00,1820.03,1673.26" origBoundary="-0.115477,51.518028,-0.086294,51.533349" projParameter="+proj=utm +zone=30 +ellps=WGS84 +datum=WGS84 +units=m +no_defs"/>

    <type id="highway.bridleway" priority="1" numLanes="1" speed="2.78" allow="pedestrian" oneway="1" width="2.00"/>
    <type id="highway.bus_guideway" priority="1" numLanes="1" speed="27.78" allow="bus" oneway="1"/>
    <type id="highway.cycleway" priority="1" numLanes="1" speed="8.33" allow="bicycle" oneway="1" width="1.00"/>
    <type id="highway.footway" priority="1" numLanes="1" speed="2.78" allow="pedestrian" oneway="1" width="2.00"/>
    <type id="highway.ford" priority="1" numLanes="1" speed="2.78" allow="army" oneway="1"/>
    <type id="highway.living_street" priority="2" numLanes="1" speed="2.78" disallow="tram rail_urban rail rail_electric rail_fast ship" oneway="1"/>
    <type id="highway.motorway" priority="14" numLanes="2" speed="39.44" allow="private emergency authority army vip passenger hov taxi bus coach delivery truck trailer motorcycle evehicle custom1 custom2" oneway="1"/>
    <type id="highway.motorway_link" priority="9" numLanes="1" speed="22.22" allow="private emergency authority army vip passenger hov taxi bus coach delivery truck trailer motorcycle evehicle custom1 custom2" oneway="1"/>
    <type id="highway.path" priority="1" numLanes="1" speed="2.78" allow="pedestrian bicycle" oneway="1" width="2.00"/>
    <type id="highway.pedestrian" priority="1" numLanes="1" speed="2.78" allow="pedestrian" oneway="1" width="2.00"/>
    <type id="highway.primary" priority="12" numLanes="2" speed="27.78" disallow="tram rail_urban rail rail_electric rail_fast ship" oneway="1"/>
    <type id="highway.primary_link" priority="7" numLanes="1" speed="22.22" disallow="tram rail_urban rail rail_electric rail_fast ship" oneway="1"/>
    <type id="highway.raceway" priority="15" numLanes="2" speed="83.33" allow="vip" oneway="1"/>
    <type id="highway.residential" priority="3" numLanes="1" speed="13.89" disallow="tram rail_urban rail rail_electric rail_fast ship" oneway="1"/>
    <type id="highway.secondary" priority="11" numLanes="1" speed="27.78" disallow="tram rail_urban rail rail_electric rail_fast ship" oneway="1"/>
    <type id="highway.secondary_link" priority="6" numLanes="1" speed="22.22" disallow="tram rail_urban rail rail_electric rail_fast ship" oneway="1"/>
    <type id="highway.service" priority="1" numLanes="1" speed="5.56" allow="pedestrian delivery bicycle" oneway="1"/>
    <type id="highway.stairs" priority="1" numLanes="1" speed="1.39" allow="pedestrian" oneway="1" width="2.00"/>
    <type id="highway.step" priority="1" numLanes="1" speed="1.39" allow="pedestrian" oneway="1" width="2.00"/>
    <type id="highway.steps" priority="1" numLanes="1" speed="1.39" allow="pedestrian" oneway="1" width="2.00"/>
    <type id="highway.tertiary" priority="10" numLanes="1" speed="22.22" disallow="tram rail_urban rail rail_electric rail_fast ship" oneway="1"/>
    <type id="highway.tertiary_link" priority="5" numLanes="1" speed="22.22" disallow="tram rail_urban rail rail_electric rail_fast ship" oneway="1"/>
    <type id="highway.track" priority="1" numLanes="1" speed="5.56" allow="pedestrian motorcycle moped bicycle" oneway="1"/>
    <type id="highway.trunk" priority="13" numLanes="2" speed="27.78" disallow="pedestrian bicycle tram rail_urban rail rail_electric rail_fast ship" oneway="1"/>
    <type id="highway.trunk_link" priority="8" numLanes="1" speed="22.22" disallow="pedestrian bicycle tram rail_urban rail rail_electric rail_fast ship" oneway="1"/>
    <type id="highway.unclassified" priority="4" numLanes="1" speed="13.89" disallow="tram rail_urban rail rail_electric rail_fast ship" oneway="1"/>
    <type id="highway.unsurfaced" priority="1" numLanes="1" speed="8.33" disallow="tram rail_urban rail rail_electric rail_fast ship" oneway="1"/>
    <type id="railway.highspeed" priority="21" numLanes="1" speed="69.44" allow="rail_fast" oneway="1"/>
    <type id="railway.light_rail" priority="19" numLanes="1" speed="27.78" allow="rail_urban" oneway="1"/>
    <type id="railway.preserved" priority="16" numLanes="1" speed="27.78" allow="rail" oneway="1"/>
    <type id="railway.rail" priority="20" numLanes="1" speed="44.44" allow="rail" oneway="1"/>
    <type id="railway.subway" priority="18" numLanes="1" speed="27.78" allow="rail_urban" oneway="1"/>
    <type id="railway.tram" priority="17" numLanes="1" speed="13.89" allow="tram" oneway="1"/>

    <edge id=":0_0" function="internal">
        <lane id=":0_0_0" index="0" disallow="tram rail_urban rail rail_electric rail_fast ship" speed="8.94" length="0.23" shape="1131.06,1309.98 1131.00,1310.20"/>
    </edge>
    <edge id=":0_1" function="internal">
        <lane id=":0_1_0" index="0" disallow="tram rail_urban rail rail_electric rail_fast ship" speed="8.94" length="0.31" shape="1127.91,1309.38 1127.99,1309.08"/>
    </edge>
    <edge id=":1_0" function="internal">
        <lane id=":1_0_0" index="0" disallow="tram rail_urban rail rail_electric rail_fast ship" speed="6.24" length="9.06" shape="876.60,1235.68 874.63,1234.21 872.70,1233.85 870.81,1234.58 868.95,1236.42"/>
    </edge>
    <edge id=":1_1" function="internal">
        <lane id=":1_1_0" index="0" disallow="tram rail_urban rail rail_electric rail_fast ship" speed="8.94" length="13.84" shape="876.60,1235.68 874.10,1232.56 872.72,1229.43 872.46,1226.28 873.33,1223.13"/>
    </edge>
    <edge id=":1_2" function="internal">
        <lane id=":1_2_0" index="0" disallow="tram rail_urban rail rail_electric rail_fast ship" speed="3.66" length="4.71" shape="876.60,1235.68 876.15,1234.30 876.34,1233.42 877.16,1233.04 878.60,1233.16"/>
    </edge>
    <edge id=":1_3" function="internal">
        <lane id=":1_3_0" index="0" disallow="tram rail_urban rail rail_electric rail_fast ship" speed="7.79" length="9.62" shape="876.25,1224.45 875.66,1226.62 875.86,1228.79 876.84,1230.97 878.60,1233.16"/>
    </edge>
    <edge id=":1_4" function="internal">
        <lane id=":1_4_0" index="0" disallow="tram rail_urban rail rail_electric rail_fast ship" speed="8.94" length="14.05" shape="876.25,1224.45 874.67,1227.69 872.97,1230.66 871.09,1233.52 868.95,1236.42"/>
    </edge>
    <edge id=":1_5" function="internal">
        <lane id=":1_5_0" index="0" disallow="tram rail_urban rail rail_electric rail_fast ship" speed="3.65" length="2.34" shape="876.25,1224.45 875.02,1225.22 874.13,1225.25"/>
    </edge>
    <edge id=":1_9" function="internal">
        <lane id=":1_9_0" index="0" disallow="tram rail_urban rail rail_electric rail_fast ship" speed="3.65" length="2.34" shape="874.13,1225.25 873.56,1224.56 873.33,1223.13"/>
    </edge>
    <edge id=":1_6" function="internal">
        <lane id=":1_6_0" index="0" disallow="tram rail_urban rail rail_electric rail_fast ship" speed="8.94" length="13.31" shape="866.41,1234.46 868.49,1231.67 870.25,1229.02 871.81,1226.27 873.33,1223.13"/>
    </edge>
    <edge id=":1_7" function="internal">
        <lane id=":1_7_0" index="0" disallow="tram rail_urban rail rail_electric rail_fast ship" speed="7.71" length="5.81" shape="866.41,1234.46 869.40,1231.50 870.89,1230.91"/>
    </edge>
    <edge id=":1_8" function="internal">
        <lane id=":1_8_0" index="0" disallow="tram rail_urban rail rail_electric rail_fast ship" speed="3.65" length="2.34" shape="866.41,1234.46 867.78,1234.00 868.66,1234.18"/>
    </edge>
    <edge id=":1_10" function="internal">
        <lane id=":1_10_0" index="0" disallow="tram rail_urban rail rail_electric rail_fast ship" speed="7.71" length="8.64" shape="870.89,1230.91 872.43,1230.30 875.50,1230.85 878.60,1233.16"/>
    </edge>
    <edge id=":1_11" function="internal">
        <lane id=":1_11_0" index="0" disallow="tram rail_urban rail rail_electric rail_fast ship" speed="3.65" length="2.34" shape="868.66,1234.18 869.05,1234.98 868.95,1236.42"/>
    </edge>
    <edge id=":10_0" function="internal">
        <lane id=":10_0_0" index="0" disallow="bicycle tram rail_urban rail rail_electric rail_fast ship" speed="6.67" length="9.04" shape="1028.92,1378.61 1027.79,1376.39 1026.24,1375.01 1024.26,1374.46 1021.86,1374.75"/>
    </edge>
    <edge id=":10_1" function="internal">
        <lane id=":10_1_0" index="0" disallow="bicycle tram rail_urban rail rail_electric rail_fast ship" speed="8.68" length="16.65" shape="1028.92,1378.61 1027.73,1373.52 1028.04,1369.47 1029.84,1366.45 1033.14,1364.47"/>
    </edge>
    <edge id=":10_2" function="internal">
        <lane id=":10_2_0" index="0" disallow="tram rail_urban rail rail_electric rail_fast ship" speed="3.65" length="4.67" shape="1028.92,1378.61 1029.28,1377.22 1029.91,1376.58 1030.79,1376.70 1031.94,1377.57"/>
    </edge>
    <edge id=":10_3" function="internal">
        <lane id=":10_3_0" index="0" disallow="bicycle tram rail_urban rail rail_electric rail_fast ship" speed="6.51" length="8.92" shape="1035.32,1370.48 1033.17,1371.63 1031.89,1373.19 1031.48,1375.17 1031.94,1377.57"/>
    </edge>
    <edge id=":10_4" function="internal">
        <lane id=":10_4_0" index="0" disallow="bicycle tram rail_urban rail rail_electric rail_fast ship" speed="13.41" length="13.99" shape="1035.32,1370.48 1021.86,1374.75"/>
        <lane id=":10_4_1" index="1" disallow="bicycle tram rail_urban rail rail_electric rail_fast ship" speed="13.41" length="13.99" shape="1034.23,1367.47 1021.02,1371.66"/>
    </edge>
    <edge id=":10_6" function="internal">
        <lane id=":10_6_0" index="0" disallow="bicycle tram rail_urban rail rail_electric rail_fast ship" speed="3.65" length="2.34" shape="1034.23,1367.47 1032.83,1367.13 1032.18,1366.52"/>
    </edge>
    <edge id=":10_11" function="internal">
        <lane id=":10_11_0" index="0" disallow="bicycle tram rail_urban rail rail_electric rail_fast ship" speed="3.65" length="2.34" shape="1032.18,1366.52 1032.28,1365.63 1033.14,1364.47"/>
    </edge>
    <edge id=":10_7" function="internal">
        <lane id=":10_7_0" index="0" disallow="bicycle tram rail_urban rail rail_electric rail_fast ship" speed="13.41" length="13.45" shape="1019.36,1365.48 1032.05,1361.46"/>
        <lane id=":10_7_1" index="1" disallow="bicycle tram rail_urban rail rail_electric rail_fast ship" speed="13.41" length="13.45" shape="1020.19,1368.57 1033.14,1364.47"/>
    </edge>
    <edge id=":10_9" function="internal">
        <lane id=":10_9_0" index="0" disallow="bicycle tram rail_urban rail rail_electric rail_fast ship" speed="8.81" length="4.77" shape="1020.19,1368.57 1023.89,1368.33 1024.86,1368.77"/>
    </edge>
    <edge id=":10_10" function="internal">
        <lane id=":10_10_0" index="0" disallow="bicycle tram rail_urban rail rail_electric rail_fast ship" speed="3.65" length="2.34" shape="1020.19,1368.57 1021.56,1369.03 1022.15,1369.70"/>
    </edge>
    <edge id=":10_12" function="internal">
        <lane id=":10_12_0" index="0" disallow="bicycle tram rail_urban rail rail_electric rail_fast ship" speed="8.81" length="11.73" shape="1024.86,1368.77 1027.09,1369.75 1029.77,1372.83 1031.94,1377.57"/>
    </edge>
    <edge id=":10_13" function="internal">
        <lane id=":10_13_0" index="0" disallow="bicycle tram rail_urban rail rail_electric rail_fast ship" speed="3.65" length="2.34" shape="1022.15,1369.70 1021.97,1370.58 1021.02,1371.66"/>
    </edge>
    <edge id=":100_0" function="internal">
        <lane id=":100_0_0" index="0" disallow="tram rail_urban rail rail_electric rail_fast ship" speed="8.94" length="14.61" shape="925.92,1099.38 921.27,1113.22"/>
    </edge>
    <edge id=":100_1" function="internal">
        <lane id=":100_1_0" index="0" disallow="tram rail_urban rail rail_electric rail_fast ship" speed="7.90" length="6.17" shape="925.92,1099.38 924.21,1102.97 922.55,1104.40"/>
    </edge>
    <edge id=":100_2" function="internal">
        <lane id=":100_2_0" index="0" disallow="tram rail_urban rail rail_electric rail_fast ship" speed="3.65" length="2.34" shape="925.92,1099.38 924.80,1100.29 923.92,1100.43"/>
    </edge>
    <edge id=":100_9" function="internal">
        <lane id=":100_9_0" index="0" disallow="tram rail_urban rail rail_electric rail_fast ship" speed="7.90" length="8.24" shape="922.55,1104.40 921.76,1105.08 918.60,1105.70 914.71,1104.85"/>
    </edge>
    <edge id=":100_10" function="internal">
        <lane id=":100_10_0" index="0" disallow="tram rail_urban rail rail_electric rail_fast ship" speed="3.65" length="2.34" shape="923.92,1100.43 923.27,1099.81 922.87,1098.42"/>
    </edge>
    <edge id=":100_3" function="internal">
        <lane id=":100_3_0" index="0" disallow="tram rail_urban rail rail_electric rail_fast ship" speed="6.39" length="9.04" shape="915.84,1101.85 918.28,1102.39 920.26,1102.00 921.79,1100.67 922.87,1098.42"/>
    </edge>
    <edge id=":100_4" function="internal">
        <lane id=":100_4_0" index="0" disallow="tram rail_urban rail rail_electric rail_fast ship" speed="8.08" length="14.33" shape="915.84,1101.85 919.33,1103.75 921.39,1106.27 922.04,1109.43 921.27,1113.22"/>
    </edge>
    <edge id=":100_5" function="internal">
        <lane id=":100_5_0" index="0" disallow="tram rail_urban rail rail_electric rail_fast ship" speed="3.65" length="4.67" shape="915.84,1101.85 916.68,1103.02 916.77,1103.91 916.12,1104.52 914.71,1104.85"/>
    </edge>
    <edge id=":100_6" function="internal">
        <lane id=":100_6_0" index="0" disallow="tram rail_urban rail rail_electric rail_fast ship" speed="6.60" length="9.22" shape="918.26,1112.14 918.75,1109.72 918.32,1107.69 916.97,1106.07 914.71,1104.85"/>
    </edge>
    <edge id=":100_7" function="internal">
        <lane id=":100_7_0" index="0" disallow="tram rail_urban rail rail_electric rail_fast ship" speed="8.94" length="14.47" shape="918.26,1112.14 922.87,1098.42"/>
    </edge>
    <edge id=":100_8" function="internal">
        <lane id=":100_8_0" index="0" disallow="tram rail_urban rail rail_electric rail_fast ship" speed="3.65" length="2.34" shape="918.26,1112.14 919.42,1111.28 920.31,1111.18"/>
    </edge>
    <edge id=":100_11" function="internal">
        <lane id=":100_11_0" index="0" disallow="tram rail_urban rail rail_electric rail_fast ship" speed="3.65" length="2.34" shape="920.31,1111.18 920.92,1111.82 921.27,1113.22"/>
    </edge>
    <edge id=":101_0" function="internal">
        <lane id=":101_0_0" index="0" disallow="tram rail_urban rail rail_electric rail_fast ship" speed="8.94" length="15.98" shape="957.44,1001.08 956.53,1004.87 955.45,1008.81 954.28,1012.73 953.11,1016.45"/>
    </edge>
    <edge id=":101_1" function="internal">
        <lane id=":101_1_0" index="0" disallow="tram rail_urban rail rail_electric rail_fast ship" speed="8.94" length="5.68" shape="957.44,1001.08 956.14,1004.21 954.59,1005.89"/>
    </edge>
    <edge id=":101_2" function="internal">
        <lane id=":101_2_0" index="0" disallow="tram rail_urban rail rail_electric rail_fast ship" speed="3.65" length="2.34" shape="957.44,1001.08 956.41,1002.08 955.54,1002.30"/>
    </edge>
    <edge id=":101_9" function="internal">
        <lane id=":101_9_0" index="0" disallow="tram rail_urban rail rail_electric rail_fast ship" speed="8.94" length="10.44" shape="954.59,1005.89 953.71,1006.85 950.16,1009.02 945.48,1010.70"/>
    </edge>
    <edge id=":101_10" function="internal">
        <lane id=":101_10_0" index="0" disallow="tram rail_urban rail rail_electric rail_fast ship" speed="3.65" length="2.34" shape="955.54,1002.30 954.84,1001.74 954.32,1000.39"/>
    </edge>
    <edge id=":101_3" function="internal">
        <lane id=":101_3_0" index="0" disallow="tram rail_urban rail rail_electric rail_fast ship" speed="8.94" length="12.65" shape="944.63,1007.61 948.47,1006.27 951.37,1004.62 953.31,1002.66 954.32,1000.39"/>
    </edge>
    <edge id=":101_4" function="internal">
        <lane id=":101_4_0" index="0" disallow="tram rail_urban rail rail_electric rail_fast ship" speed="7.39" length="17.21" shape="944.63,1007.61 949.81,1006.89 952.95,1008.12 954.05,1011.31 953.11,1016.45"/>
    </edge>
    <edge id=":101_5" function="internal">
        <lane id=":101_5_0" index="0" disallow="tram rail_urban rail rail_electric rail_fast ship" speed="3.65" length="4.67" shape="944.63,1007.61 946.00,1008.07 946.60,1008.73 946.43,1009.61 945.48,1010.70"/>
    </edge>
    <edge id=":101_6" function="internal">
        <lane id=":101_6_0" index="0" disallow="tram rail_urban rail rail_electric rail_fast ship" speed="5.61" length="9.30" shape="950.07,1015.48 950.57,1012.70 949.98,1010.97 948.28,1010.31 945.48,1010.70"/>
    </edge>
    <edge id=":101_7" function="internal">
        <lane id=":101_7_0" index="0" disallow="tram rail_urban rail rail_electric rail_fast ship" speed="8.94" length="15.68" shape="950.07,1015.48 951.22,1011.80 952.36,1007.98 953.42,1004.14 954.32,1000.39"/>
    </edge>
    <edge id=":101_8" function="internal">
        <lane id=":101_8_0" index="0" disallow="tram rail_urban rail rail_electric rail_fast ship" speed="3.65" length="2.34" shape="950.07,1015.48 951.19,1014.58 952.08,1014.44"/>
    </edge>
    <edge id=":101_11" function="internal">
        <lane id=":101_11_0" index="0" disallow="tram rail_urban rail rail_electric rail_fast ship" speed="3.65" length="2.34" shape="952.08,1014.44 952.72,1015.07 953.11,1016.45"/>
    </edge>
    <edge id=":102_0" function="internal">
        <lane id=":102_0_0" index="0" disallow="tram rail_urban rail rail_electric rail_fast ship" speed="8.94" length="6.64" shape="825.05,1017.97 823.49,1016.79 822.31,1016.12 821.00,1015.73 819.07,1015.44"/>
    </edge>
    <edge id=":102_1" function="internal">
        <lane id=":102_1_0" index="0" disallow="tram rail_urban rail rail_electric rail_fast ship" speed="7.23" length="9.51" shape="825.05,1017.97 824.05,1016.61 823.80,1014.68 824.30,1012.18 825.54,1009.10"/>
    </edge>
    <edge id=":102_2" function="internal">
        <lane id=":102_2_0" index="0" disallow="tram rail_urban rail rail_electric rail_fast ship" speed="3.65" length="4.67" shape="825.05,1017.97 824.60,1016.60 824.78,1015.73 825.59,1015.35 827.02,1015.46"/>
    </edge>
    <edge id=":102_3" function="internal">
        <lane id=":102_3_0" index="0" disallow="tram rail_urban rail rail_electric rail_fast ship" speed="6.72" length="7.36" shape="819.49,1012.27 821.46,1012.28 823.13,1011.76 824.49,1010.70 825.54,1009.10"/>
    </edge>
    <edge id=":102_4" function="internal">
        <lane id=":102_4_0" index="0" disallow="tram rail_urban rail rail_electric rail_fast ship" speed="8.94" length="8.36" shape="819.49,1012.27 821.92,1012.64 823.57,1013.12 825.06,1013.97 827.02,1015.46"/>
    </edge>
    <edge id=":102_5" function="internal">
        <lane id=":102_5_0" index="0" disallow="tram rail_urban rail rail_electric rail_fast ship" speed="3.65" length="4.67" shape="819.49,1012.27 820.57,1013.22 820.86,1014.06 820.36,1014.80 819.07,1015.44"/>
    </edge>
    <edge id=":103_0" function="internal">
        <lane id=":103_0_0" index="0" disallow="tram rail_urban rail rail_electric rail_fast ship" speed="6.90" length="8.59" shape="770.89,1031.51 770.20,1029.50 768.94,1028.03 767.10,1027.10 764.67,1026.70"/>
    </edge>
    <edge id=":103_1" function="internal">
        <lane id=":103_1_0" index="0" disallow="tram rail_urban rail rail_electric rail_fast ship" speed="8.94" length="13.18" shape="770.89,1031.51 770.65,1027.86 771.26,1024.69 772.72,1021.98 775.04,1019.75"/>
    </edge>
    <edge id=":103_2" function="internal">
        <lane id=":103_2_0" index="0" disallow="tram rail_urban rail rail_electric rail_fast ship" speed="3.65" length="4.67" shape="770.89,1031.51 771.47,1030.19 772.19,1029.66 773.05,1029.92 774.04,1030.97"/>
    </edge>
    <edge id=":103_3" function="internal">
        <lane id=":103_3_0" index="0" disallow="tram rail_urban rail rail_electric rail_fast ship" speed="7.38" length="9.84" shape="776.93,1022.34 775.22,1023.52 774.17,1025.36 773.78,1027.84 774.04,1030.97"/>
    </edge>
    <edge id=":103_4" function="internal">
        <lane id=":103_4_0" index="0" disallow="tram rail_urban rail rail_electric rail_fast ship" speed="8.94" length="13.17" shape="776.93,1022.34 773.77,1023.87 770.95,1025.34 768.04,1026.39 764.67,1026.70"/>
    </edge>
    <edge id=":103_5" function="internal">
        <lane id=":103_5_0" index="0" disallow="tram rail_urban rail rail_electric rail_fast ship" speed="3.76" length="4.69" shape="776.93,1022.34 775.49,1022.40 774.69,1021.99 774.54,1021.10 775.04,1019.75"/>
    </edge>
    <edge id=":103_6" function="internal">
        <lane id=":103_6_0" index="0" disallow="tram rail_urban rail rail_electric rail_fast ship" speed="8.94" length="11.71" shape="764.27,1023.48 767.49,1023.41 770.01,1022.81 772.36,1021.61 775.04,1019.75"/>
    </edge>
    <edge id=":103_7" function="internal">
        <lane id=":103_7_0" index="0" disallow="tram rail_urban rail rail_electric rail_fast ship" speed="8.49" length="13.44" shape="764.27,1023.48 768.09,1024.10 770.99,1025.55 772.97,1027.84 774.04,1030.97"/>
    </edge>
    <edge id=":103_8" function="internal">
        <lane id=":103_8_0" index="0" disallow="tram rail_urban rail rail_electric rail_fast ship" speed="3.67" length="4.74" shape="764.27,1023.48 765.58,1024.13 766.08,1024.89 765.78,1025.75 764.67,1026.70"/>
    </edge>
    <edge id=":104_0" function="internal">
        <lane id=":104_0_0" index="0" disallow="tram rail_urban rail rail_electric rail_fast ship" speed="8.94" length="14.21" shape="1395.01,412.59 1390.89,426.19"/>
    </edge>
    <edge id=":104_1" function="internal">
        <lane id=":104_1_0" index="0" disallow="tram rail_urban rail rail_electric rail_fast ship" speed="8.46" length="5.50" shape="1395.01,412.59 1393.34,415.89 1391.98,417.07"/>
    </edge>
    <edge id=":104_2" function="internal">
        <lane id=":104_2_0" index="0" disallow="tram rail_urban rail rail_electric rail_fast ship" speed="3.65" length="2.34" shape="1395.01,412.59 1393.87,413.48 1392.99,413.61"/>
    </edge>
    <edge id=":104_9" function="internal">
        <lane id=":104_9_0" index="0" disallow="tram rail_urban rail rail_electric rail_fast ship" speed="8.46" length="8.79" shape="1391.98,417.07 1390.90,418.01 1387.68,418.97 1383.69,418.75"/>
    </edge>
    <edge id=":104_10" function="internal">
        <lane id=":104_10_0" index="0" disallow="tram rail_urban rail rail_electric rail_fast ship" speed="3.65" length="2.34" shape="1392.99,413.61 1392.35,412.97 1391.97,411.58"/>
    </edge>
    <edge id=":104_3" function="internal">
        <lane id=":104_3_0" index="0" disallow="tram rail_urban rail rail_electric rail_fast ship" speed="7.05" length="9.63" shape="1384.27,415.61 1387.00,415.77 1389.20,415.15 1390.85,413.76 1391.97,411.58"/>
    </edge>
    <edge id=":104_4" function="internal">
        <lane id=":104_4_0" index="0" disallow="tram rail_urban rail rail_electric rail_fast ship" speed="7.85" length="14.55" shape="1384.27,415.61 1388.09,416.89 1390.47,419.08 1391.40,422.18 1390.89,426.19"/>
    </edge>
    <edge id=":104_5" function="internal">
        <lane id=":104_5_0" index="0" disallow="tram rail_urban rail rail_electric rail_fast ship" speed="3.65" length="4.67" shape="1384.27,415.61 1385.30,416.61 1385.55,417.47 1385.01,418.18 1383.69,418.75"/>
    </edge>
    <edge id=":104_6" function="internal">
        <lane id=":104_6_0" index="0" disallow="tram rail_urban rail rail_electric rail_fast ship" speed="6.32" length="9.04" shape="1387.80,425.33 1388.13,422.84 1387.55,420.91 1386.07,419.55 1383.69,418.75"/>
    </edge>
    <edge id=":104_7" function="internal">
        <lane id=":104_7_0" index="0" disallow="tram rail_urban rail rail_electric rail_fast ship" speed="8.94" length="14.36" shape="1387.80,425.33 1391.97,411.58"/>
    </edge>
    <edge id=":104_8" function="internal">
        <lane id=":104_8_0" index="0" disallow="tram rail_urban rail rail_electric rail_fast ship" speed="3.65" length="2.34" shape="1387.80,425.33 1388.90,424.39 1389.77,424.22"/>
    </edge>
    <edge id=":104_11" function="internal">
        <lane id=":104_11_0" index="0" disallow="tram rail_urban rail rail_electric rail_fast ship" speed="3.65" length="2.34" shape="1389.77,424.22 1390.44,424.82 1390.89,426.19"/>
    </edge>
    <edge id=":105_0" function="internal">
        <lane id=":105_0_0" index="0" disallow="tram rail_urban rail rail_electric rail_fast ship" speed="3.65" length="4.67" shape="1317.59,406.43 1316.59,405.40 1316.37,404.53 1316.93,403.83 1318.27,403.31"/>
    </edge>
    <edge id=":106_0" function="internal">
        <lane id=":106_0_0" index="0" disallow="tram rail_urban rail rail_electric rail_fast ship" speed="8.13" length="7.40" shape="303.74,959.25 302.12,959.75 300.66,960.68 299.37,962.04 298.25,963.82"/>
    </edge>
    <edge id=":106_1" function="internal">
        <lane id=":106_1_0" index="0" disallow="tram rail_urban rail rail_electric rail_fast ship" speed="8.94" length="12.14" shape="303.74,959.25 300.63,959.47 297.70,959.05 294.95,957.98 292.36,956.26"/>
    </edge>
    <edge id=":106_2" function="internal">
        <lane id=":106_2_0" index="0" disallow="tram rail_urban rail rail_electric rail_fast ship" speed="3.67" length="4.74" shape="303.74,959.25 302.52,958.44 302.12,957.62 302.53,956.81 303.74,956.00"/>
    </edge>
    <edge id=":106_3" function="internal">
        <lane id=":106_3_0" index="0" disallow="tram rail_urban rail rail_electric rail_fast ship" speed="8.94" length="10.33" shape="294.04,953.50 296.23,954.95 298.57,955.85 301.08,956.20 303.74,956.00"/>
    </edge>
    <edge id=":106_4" function="internal">
        <lane id=":106_4_0" index="0" disallow="tram rail_urban rail rail_electric rail_fast ship" speed="8.05" length="12.10" shape="294.04,953.50 296.83,956.21 298.45,958.83 298.93,961.37 298.25,963.82"/>
    </edge>
    <edge id=":106_5" function="internal">
        <lane id=":106_5_0" index="0" disallow="tram rail_urban rail rail_electric rail_fast ship" speed="3.66" length="4.72" shape="294.04,953.50 294.66,954.82 294.58,955.72 293.82,956.20 292.36,956.26"/>
    </edge>
    <edge id=":106_6" function="internal">
        <lane id=":106_6_0" index="0" disallow="tram rail_urban rail rail_electric rail_fast ship" speed="6.66" length="8.00" shape="295.01,963.13 295.48,961.46 295.20,959.76 294.16,958.03 292.36,956.26"/>
    </edge>
    <edge id=":106_7" function="internal">
        <lane id=":106_7_0" index="0" disallow="tram rail_urban rail rail_electric rail_fast ship" speed="8.94" length="11.69" shape="295.01,963.13 296.76,960.36 298.80,958.26 301.13,956.80 303.74,956.00"/>
    </edge>
    <edge id=":106_8" function="internal">
        <lane id=":106_8_0" index="0" disallow="tram rail_urban rail rail_electric rail_fast ship" speed="3.70" length="4.85" shape="295.01,963.13 296.08,962.08 296.98,961.85 297.70,962.43 298.25,963.82"/>
    </edge>
    <edge id=":107_0" function="internal">
        <lane id=":107_0_0" index="0" disallow="tram rail_urban rail rail_electric rail_fast ship" speed="8.90" length="11.55" shape="245.65,918.05 243.19,916.52 240.56,915.83 237.76,915.97 234.78,916.94"/>
    </edge>
    <edge id=":107_1" function="internal">
        <lane id=":107_1_0" index="0" disallow="tram rail_urban rail rail_electric rail_fast ship" speed="8.12" length="14.66" shape="245.65,918.05 242.19,914.65 240.34,911.46 240.12,908.46 241.52,905.67"/>
    </edge>
    <edge id=":107_2" function="internal">
        <lane id=":107_2_0" index="0" disallow="tram rail_urban rail rail_electric rail_fast ship" speed="3.75" length="5.08" shape="245.65,918.05 244.64,916.85 244.47,915.89 245.13,915.18 246.62,914.71"/>
    </edge>
    <edge id=":107_3" function="internal">
        <lane id=":107_3_0" index="0" disallow="tram rail_urban rail rail_electric rail_fast ship" speed="6.43" length="8.79" shape="244.37,907.25 243.48,908.97 243.55,910.79 244.60,912.71 246.62,914.71"/>
    </edge>
    <edge id=":107_4" function="internal">
        <lane id=":107_4_0" index="0" disallow="tram rail_urban rail rail_electric rail_fast ship" speed="8.94" length="13.78" shape="244.37,907.25 242.17,910.10 240.09,912.77 237.76,915.10 234.78,916.94"/>
    </edge>
    <edge id=":107_5" function="internal">
        <lane id=":107_5_0" index="0" disallow="tram rail_urban rail rail_electric rail_fast ship" speed="3.67" length="4.75" shape="244.37,907.25 243.07,907.92 242.16,907.88 241.64,907.13 241.52,905.67"/>
    </edge>
    <edge id=":107_6" function="internal">