<?xml version="1.0" encoding="UTF-8"?>

<!-- generated on 2024-02-26 09:24:59 by Eclipse SUMO netconvert Version 1.18.0
<configuration xmlns:xsi="http://www.w3.org/2001/XMLSchema-instance" xsi:noNamespaceSchemaLocation="http://sumo.dlr.de/xsd/netconvertConfiguration.xsd">

    <input>
        <sumo-net-file value="/home/svadlmat/UTC/utc/data/maps/sumo/lust.net.xml"/>
    </input>

    <output>
        <output-file value="/home/svadlmat/UTC/utc/data/maps/sumo/lust2.net.xml"/>
    </output>

    <processing>
        <geometry.min-radius.fix.railways value="false"/>
        <geometry.max-grade.fix value="false"/>
        <offset.disable-normalization value="true"/>
        <lefthand value="0"/>
    </processing>

    <edge_removal>
        <keep-edges.explicit value="-31230#2, -30534#2, &#45;&#45;30528#17, &#45;&#45;31984, -32964#11, &#45;&#45;31468#0, &#45;&#45;31028#0, -30882, -31850#1, &#45;&#45;31886#2, &#45;&#45;31272#1, -31230#3, -32468#0, &#45;&#45;30950, &#45;&#45;31886#3, &#45;&#45;32410#3, -32410#1, &#45;&#45;31880, &#45;&#45;32916#0, -32410#2, &#45;&#45;32126#2, -30608#7, &#45;&#45;30608#9, &#45;&#45;30608#10, -30534#0, &#45;&#45;32468#5, &#45;&#45;30902#5, -31468#1, &#45;&#45;32178, &#45;&#45;31230#2, -30528#20, &#45;&#45;32410#0, -32916#0, &#45;&#45;31272#0, -30474#0, &#45;&#45;30678#1, -32468#4, -32774#0, -30568, &#45;&#45;31042#2, -30950, -30534#11, -31886#2, -30340, &#45;&#45;31850#1, -31808, &#45;&#45;32126#1, -32964#6, &#45;&#45;32410#2, &#45;&#45;30528#15, &#45;&#45;31272#3, -30608#9, -32014, &#45;&#45;30528#19, &#45;&#45;30528#12, -32126#4, -31042#1, -31306#1, -32468#2, &#45;&#45;32964#9, &#45;&#45;30534#1, -30852, -30548, &#45;&#45;30678#0, &#45;&#45;32126#4, -31230#4, &#45;&#45;32964#8, &#45;&#45;30534#3, &#45;&#45;30534#4, &#45;&#45;30528#13, -31272#1, &#45;&#45;31850#0, &#45;&#45;31380#0, &#45;&#45;31886#0, &#45;&#45;30902#10, -32468#1, -30498#2, -31886#0, &#45;&#45;32964#4, -32850, &#45;&#45;30528#18, &#45;&#45;30498#1, &#45;&#45;31030, &#45;&#45;30902#0, &#45;&#45;32484, -31880, &#45;&#45;31388#3, -30476, -31468#0, &#45;&#45;32468#6, -31042#0, &#45;&#45;32964#11, -30678#0, -31850#0, -30474#1, -30498#1, -32640, -30902#0, -32126#0, -31388#4, -30902#5, &#45;&#45;32468#2, &#45;&#45;30456, -30528#15, -30528#17, -30868, -31886#3, -31306#0, &#45;&#45;30568, &#45;&#45;32468#0, &#45;&#45;31232, -30528#16, &#45;&#45;31272#2, -31886#1, &#45;&#45;31788, &#45;&#45;31808, &#45;&#45;30902#2, &#45;&#45;31042#1, -31028#1, -30528#12, -30534#5, -30528#11, -30678#1, &#45;&#45;32802#0, -31272#0, -32410#3, -30608#8, &#45;&#45;32916#3, -31788, &#45;&#45;32916#2, -31028#0, &#45;&#45;30534#0, -30528#13, -32628, -30902#1, -32774#1, -32468#3, -30534#1, -31040, &#45;&#45;30498#3, -31984, -32916#2, -32126#3, -32774#2, -31272#3, &#45;&#45;32802#1, &#45;&#45;32964#7, &#45;&#45;31886#1, -31232, -32468#5, -31754, -32410#0, &#45;&#45;30528#11, -32490, &#45;&#45;32640, -32964#9, -31380#0, &#45;&#45;32410#1, -30902#9, -32514, &#45;&#45;30902#9, -32126#2, &#45;&#45;31042#0, -32132, &#45;&#45;32964#10, &#45;&#45;30534#5, &#45;&#45;30902#1, &#45;&#45;30902#3, -30902#4, &#45;&#45;30902#11, -31230#5, &#45;&#45;30528#14, -31376#1, -31890, &#45;&#45;31890, &#45;&#45;31468#1, -30456, &#45;&#45;30528#16, &#45;&#45;32964#6, -30902#10, -32916#3, &#45;&#45;30534#11, -32802#0, &#45;&#45;30528#20, -31030, &#45;&#45;32468#1, -32964#7, -32484, -32854, &#45;&#45;30608#8, &#45;&#45;32916#1, &#45;&#45;30902#4, &#45;&#45;32126#0, -30534#4, &#45;&#45;32964#5, &#45;&#45;30476, -32562, -32964#5, -32964#10, -31388#3, -30902#3, &#45;&#45;32126#3, -31822, -32802#1, -32126#1, &#45;&#45;30534#2, -31376#0, &#45;&#45;30498#0, -32468#6, -32178, -32964#8, -32916#1, &#45;&#45;32468#3, -31042#2, -31272#2, -30534#3, -31044, -30498#0, -30528#14, &#45;&#45;31230#3, -30608#10, &#45;&#45;31850#2, -31850#2, -30528#18, &#45;&#45;32468#4, &#45;&#45;30498#2, -30498#3, &#45;&#45;31028#1, -30528#19, -30902#2, &#45;&#45;31230#5, &#45;&#45;31230#4, &#45;&#45;30608#7, -32964#4, &#45;&#45;31388#4, -30902#11"/>
    </edge_removal>

    <junctions>
        <no-turnarounds value="true"/>
        <junctions.corner-detail value="0"/>
        <junctions.limit-turn-speed value="-1.00"/>
        <rectangular-lane-cut value="0"/>
    </junctions>

    <pedestrian>
        <walkingareas value="0"/>
    </pedestrian>

</configuration>
-->

<net version="1.16" xmlns:xsi="http://www.w3.org/2001/XMLSchema-instance" xsi:noNamespaceSchemaLocation="http://sumo.dlr.de/xsd/net_file.xsd">

    <location netOffset="-285448.66,-5492398.13" convBoundary="6811.12,5060.05,8156.61,6507.18" origBoundary="6.030969,49.549099,6.216758,49.652578" projParameter="+proj=utm +zone=32 +ellps=WGS84 +datum=WGS84 +units=m +no_defs"/>

    <edge id=":-1004_0" function="internal">
        <lane id=":-1004_0_0" index="0" speed="13.89" length="3.47" shape="7314.74,6254.62 7314.26,6253.71 7313.88,6253.11 7313.43,6252.57 7312.72,6251.84"/>
    </edge>
    <edge id=":-10258_0" function="internal">
        <lane id=":-10258_0_0" index="0" speed="13.89" length="9.05" shape="7941.55,5754.86 7939.24,5753.80 7937.25,5753.81 7935.59,5754.89 7934.25,5757.05"/>
    </edge>
    <edge id=":-10258_1" function="internal">
        <lane id=":-10258_1_0" index="0" speed="13.89" length="20.96" shape="7941.55,5754.86 7923.94,5743.49"/>
    </edge>
    <edge id=":-10258_2" function="internal">
        <lane id=":-10258_2_0" index="0" speed="13.89" length="20.96" shape="7925.67,5740.80 7943.28,5752.17"/>
    </edge>
    <edge id=":-10258_3" function="internal">
        <lane id=":-10258_3_0" index="0" speed="13.89" length="5.25" shape="7925.67,5740.80 7929.60,5744.04 7929.68,5744.18"/>
    </edge>
    <edge id=":-10258_6" function="internal">
        <lane id=":-10258_6_0" index="0" speed="13.89" length="12.39" shape="7929.68,5744.18 7931.84,5747.61 7932.42,5751.52 7931.32,5755.76"/>
    </edge>
    <edge id=":-10258_4" function="internal">
        <lane id=":-10258_4_0" index="0" speed="13.89" length="10.78" shape="7925.46,5753.18 7926.48,5750.03 7926.57,5747.37 7925.72,5745.18 7923.94,5743.49"/>
    </edge>
    <edge id=":-10258_5" function="internal">
        <lane id=":-10258_5_0" index="0" speed="13.89" length="17.78" shape="7928.39,5754.47 7930.85,5750.85 7934.15,5749.25 7938.30,5749.69 7943.28,5752.17"/>
    </edge>
    <edge id=":-10518_0" function="internal">
        <lane id=":-10518_0_0" index="0" speed="13.89" length="22.26" shape="7250.53,5513.35 7228.64,5515.64"/>
        <lane id=":-10518_0_1" index="1" speed="13.89" length="22.26" shape="7250.25,5510.16 7228.11,5512.49"/>
        <lane id=":-10518_0_2" index="2" speed="13.89" length="22.26" shape="7249.96,5506.97 7227.59,5509.33"/>
    </edge>
    <edge id=":-10518_3" function="internal">
        <lane id=":-10518_3_0" index="0" speed="13.89" length="3.07" shape="7249.96,5506.97 7246.92,5506.56"/>
    </edge>
    <edge id=":-10518_11" function="internal">
        <lane id=":-10518_11_0" index="0" speed="13.89" length="23.62" shape="7246.92,5506.56 7242.77,5506.01 7238.54,5502.13 7237.48,5496.14 7239.80,5488.88"/>
    </edge>
    <edge id=":-10518_4" function="internal">
        <lane id=":-10518_4_0" index="0" speed="13.89" length="9.31" shape="7245.45,5491.89 7244.45,5494.54 7244.72,5496.34 7246.28,5497.30 7249.10,5497.41"/>
    </edge>
    <edge id=":-10518_5" function="internal">
        <lane id=":-10518_5_0" index="0" speed="13.89" length="26.62" shape="7242.62,5490.38 7237.40,5499.87 7233.23,5506.71 7230.14,5510.92 7228.11,5512.49"/>
        <lane id=":-10518_5_1" index="1" speed="13.89" length="24.63" shape="7242.62,5490.38 7238.08,5498.34 7234.05,5504.14 7230.56,5507.81 7227.59,5509.33"/>
    </edge>
    <edge id=":-10518_7" function="internal">
        <lane id=":-10518_7_0" index="0" speed="13.89" length="17.01" shape="7226.01,5499.86 7228.47,5498.78 7231.12,5496.34 7233.95,5492.54 7236.98,5487.37"/>
    </edge>
    <edge id=":-10518_8" function="internal">
        <lane id=":-10518_8_0" index="0" speed="13.89" length="22.98" shape="7226.01,5499.86 7249.10,5497.41"/>
        <lane id=":-10518_8_1" index="1" speed="13.89" length="22.98" shape="7226.54,5503.02 7249.39,5500.60"/>
        <lane id=":-10518_8_2" index="2" speed="13.89" length="22.98" shape="7227.06,5506.17 7249.68,5503.78"/>
    </edge>
    <edge id=":-11622_0" function="internal">
        <lane id=":-11622_0_0" index="0" speed="13.89" length="8.95" shape="7359.35,5589.33 7358.12,5587.21 7356.50,5585.99 7354.51,5585.65 7352.12,5586.21"/>
    </edge>
    <edge id=":-11622_1" function="internal">
        <lane id=":-11622_1_0" index="0" speed="13.89" length="14.12" shape="7359.35,5589.33 7354.25,5576.04"/>
        <lane id=":-11622_1_1" index="1" speed="13.89" length="14.12" shape="7362.31,5588.13 7357.26,5574.95"/>
        <lane id=":-11622_1_2" index="2" speed="13.89" length="14.12" shape="7365.28,5586.93 7360.26,5573.85"/>
    </edge>
    <edge id=":-11622_4" function="internal">
        <lane id=":-11622_4_0" index="0" speed="13.89" length="13.77" shape="7369.29,5570.58 7374.18,5583.33"/>
        <lane id=":-11622_4_1" index="1" speed="13.89" length="13.77" shape="7366.28,5571.67 7371.21,5584.53"/>
        <lane id=":-11622_4_2" index="2" speed="13.89" length="13.77" shape="7363.27,5572.76 7368.25,5585.73"/>
    </edge>
    <edge id=":-11622_7" function="internal">
        <lane id=":-11622_7_0" index="0" speed="13.89" length="2.79" shape="7363.27,5572.76 7363.55,5575.54"/>
    </edge>
    <edge id=":-11622_11" function="internal">
        <lane id=":-11622_11_0" index="0" speed="13.89" length="16.62" shape="7363.55,5575.54 7363.66,5576.60 7361.93,5580.12 7358.09,5583.32 7352.12,5586.21"/>
    </edge>
    <edge id=":-11622_8" function="internal">
        <lane id=":-11622_8_0" index="0" speed="13.89" length="8.97" shape="7350.96,5583.23 7353.10,5582.02 7354.37,5580.42 7354.75,5578.43 7354.25,5576.04"/>
    </edge>
    <edge id=":-11622_9" function="internal">
        <lane id=":-11622_9_0" index="0" speed="13.89" length="22.29" shape="7350.96,5583.23 7358.62,5580.82 7364.55,5580.24 7368.74,5581.47 7371.21,5584.53"/>
        <lane id=":-11622_9_1" index="1" speed="13.89" length="19.45" shape="7350.96,5583.23 7357.31,5581.33 7362.31,5581.12 7365.96,5582.58 7368.25,5585.73"/>
    </edge>
    <edge id=":-11722_0" function="internal">
        <lane id=":-11722_0_0" index="0" speed="16.67" length="22.31" shape="7233.73,5882.43 7227.45,5881.53 7222.77,5879.55 7218.46,5876.55 7213.27,5872.56"/>
        <lane id=":-11722_0_1" index="1" speed="16.67" length="22.31" shape="7233.87,5879.23 7227.87,5878.43 7223.79,5876.67 7220.08,5873.88 7215.18,5869.99"/>
    </edge>
    <edge id=":-11722_2" function="internal">
        <lane id=":-11722_2_0" index="0" speed="15.28" length="3.35" shape="7233.87,5879.23 7230.72,5878.10"/>
    </edge>
    <edge id=":-11722_8" function="internal">
        <lane id=":-11722_8_0" index="0" speed="15.28" length="18.01" shape="7230.72,5878.10 7230.47,5878.01 7227.73,5874.69 7225.65,5869.28 7224.23,5861.77"/>
    </edge>
    <edge id=":-11722_3" function="internal">
        <lane id=":-11722_3_0" index="0" speed="15.28" length="14.33" shape="7227.41,5861.36 7228.36,5866.29 7229.81,5869.85 7231.75,5872.03 7234.17,5872.84"/>
    </edge>
    <edge id=":-11722_4" function="internal">
        <lane id=":-11722_4_0" index="0" speed="15.28" length="23.71" shape="7227.41,5861.36 7227.57,5869.21 7225.58,5873.27 7221.45,5873.53 7215.18,5869.99"/>
    </edge>
    <edge id=":-11722_5" function="internal">
        <lane id=":-11722_5_0" index="0" speed="15.28" length="9.67" shape="7218.98,5864.84 7221.64,5866.38 7223.41,5866.38 7224.27,5864.84 7224.23,5861.77"/>
    </edge>
    <edge id=":-11722_6" function="internal">
        <lane id=":-11722_6_0" index="0" speed="16.67" length="18.60" shape="7218.98,5864.84 7223.06,5868.19 7225.95,5870.61 7229.15,5872.14 7234.17,5872.84"/>
        <lane id=":-11722_6_1" index="1" speed="16.67" length="18.60" shape="7217.08,5867.42 7221.62,5871.09 7224.86,5873.68 7228.44,5875.30 7234.02,5876.04"/>
    </edge>
    <edge id=":-11808_0" function="internal">
        <lane id=":-11808_0_0" index="0" speed="13.89" length="9.71" shape="8155.06,6249.14 8156.50,6251.53 8156.65,6253.58 8155.51,6255.29 8153.06,6256.65"/>
    </edge>
    <edge id=":-11808_1" function="internal">
        <lane id=":-11808_1_0" index="0" speed="13.89" length="3.24" shape="8151.91,6253.66 8152.73,6253.21 8153.11,6252.64 8153.06,6251.96 8152.58,6251.16"/>
    </edge>
    <edge id=":-11886_0" function="internal">
        <lane id=":-11886_0_0" index="0" speed="13.89" length="11.23" shape="7259.48,5965.97 7269.91,5970.13"/>
    </edge>
    <edge id=":-11886_1" function="internal">
        <lane id=":-11886_1_0" index="0" speed="13.89" length="9.04" shape="7259.48,5965.97 7261.67,5967.22 7262.84,5968.85 7262.98,5970.84 7262.10,5973.21"/>
    </edge>
    <edge id=":-12364_0" function="internal">
        <lane id=":-12364_0_0" index="0" speed="13.89" length="12.75" shape="8099.94,6291.56 8097.07,6289.74 8094.47,6288.29 8091.77,6287.02 8088.63,6285.74"/>
    </edge>
    <edge id=":-12364_1" function="internal">
        <lane id=":-12364_1_0" index="0" speed="13.89" length="3.70" shape="8099.94,6291.56 8097.28,6289.21 8097.21,6289.08"/>
    </edge>
    <edge id=":-12364_6" function="internal">
        <lane id=":-12364_6_0" index="0" speed="13.89" length="9.62" shape="8097.21,6289.08 8095.88,6286.49 8095.74,6283.41 8096.85,6279.96"/>
    </edge>
    <edge id=":-12364_2" function="internal">
        <lane id=":-12364_2_0" index="0" speed="13.89" length="8.65" shape="8099.73,6281.35 8099.00,6283.60 8099.09,6285.60 8099.99,6287.37 8101.70,6288.90"/>
    </edge>
    <edge id=":-12364_3" function="internal">
        <lane id=":-12364_3_0" index="0" speed="13.89" length="13.40" shape="8099.73,6281.35 8097.72,6284.37 8095.20,6286.11 8092.17,6286.57 8088.63,6285.74"/>
    </edge>
    <edge id=":-12364_4" function="internal">
        <lane id=":-12364_4_0" index="0" speed="13.89" length="8.53" shape="8089.78,6282.76 8092.03,6283.28 8093.96,6282.99 8095.57,6281.88 8096.85,6279.96"/>
    </edge>
    <edge id=":-12364_5" function="internal">
        <lane id=":-12364_5_0" index="0" speed="13.89" length="13.44" shape="8089.78,6282.76 8093.03,6284.09 8095.93,6285.47 8098.74,6287.03 8101.70,6288.90"/>
    </edge>
    <edge id=":-13298_0" function="internal">
        <lane id=":-13298_0_0" index="0" speed="13.89" length="8.93" shape="7031.25,5804.58 7028.82,5804.16 7026.82,5804.59 7025.26,5805.87 7024.13,5807.99"/>
    </edge>
    <edge id=":-13298_1" function="internal">
        <lane id=":-13298_1_0" index="0" speed="13.89" length="10.96" shape="7027.95,5797.71 7024.13,5807.99"/>
    </edge>
    <edge id=":-13350_0" function="internal">
        <lane id=":-13350_0_0" index="0" speed="13.89" length="7.56" shape="7520.31,6086.08 7519.97,6083.84 7519.69,6082.22 7518.98,6080.88 7517.36,6079.49"/>
    </edge>
    <edge id=":-13350_1" function="internal">
        <lane id=":-13350_1_0" index="0" speed="13.89" length="16.39" shape="7520.31,6086.08 7519.70,6080.27 7520.66,6077.06 7523.21,6076.43 7527.34,6078.38"/>
    </edge>
    <edge id=":-13350_2" function="internal">
        <lane id=":-13350_2_0" index="0" speed="13.89" length="7.70" shape="7523.81,6083.72 7517.36,6079.49"/>
        <lane id=":-13350_2_1" index="1" speed="13.89" length="7.70" shape="7525.58,6081.05 7519.15,6076.85"/>
    </edge>
    <edge id=":-13350_4" function="internal">
        <lane id=":-13350_4_0" index="0" speed="13.89" length="7.62" shape="7522.74,6071.55 7529.10,6075.71"/>
        <lane id=":-13350_4_1" index="1" speed="13.89" length="7.62" shape="7520.95,6074.20 7527.34,6078.38"/>
    </edge>
    <edge id=":-14174_0" function="internal">
        <lane id=":-14174_0_0" index="0" speed="13.89" length="2.85" shape="7821.94,5677.65 7821.21,5677.32 7820.59,5677.32 7820.05,5677.66 7819.62,5678.33"/>
    </edge>
    <edge id=":-14174_1" function="internal">
        <lane id=":-14174_1_0" index="0" speed="13.89" length="8.56" shape="7816.71,5676.99 7818.02,5674.98 7819.61,5673.97 7821.50,5673.97 7823.68,5674.97"/>
    </edge>
    <edge id=":-14388_0" function="internal">
        <lane id=":-14388_0_0" index="0" speed="15.28" length="16.99" shape="7416.15,6242.63 7413.87,6243.99 7411.92,6246.90 7410.30,6251.34 7409.01,6257.31"/>
    </edge>
    <edge id=":-14388_1" function="internal">
        <lane id=":-14388_1_0" index="0" speed="18.05" length="24.56" shape="7416.15,6242.63 7409.37,6244.54 7404.89,6246.39 7400.59,6248.69 7394.31,6251.98"/>
        <lane id=":-14388_1_1" index="1" speed="18.05" length="24.56" shape="7415.38,6239.52 7408.40,6241.49 7403.79,6243.37 7399.36,6245.73 7392.89,6249.11"/>
        <lane id=":-14388_1_2" index="2" speed="18.05" length="24.56" shape="7414.62,6236.41 7407.44,6238.43 7402.69,6240.36 7398.12,6242.77 7391.47,6246.24"/>
    </edge>
    <edge id=":-14388_4" function="internal">
        <lane id=":-14388_4_0" index="0" speed="16.66" length="26.65" shape="7387.21,6237.64 7394.42,6233.90 7399.39,6231.32 7404.54,6229.26 7412.33,6227.09"/>
        <lane id=":-14388_4_1" index="1" speed="16.66" length="26.65" shape="7388.63,6240.51 7395.66,6236.86 7400.49,6234.33 7405.50,6232.32 7413.09,6230.20"/>
        <lane id=":-14388_4_2" index="2" speed="16.66" length="26.65" shape="7390.05,6243.37 7396.89,6239.82 7401.59,6237.35 7406.47,6235.37 7413.86,6233.30"/>
    </edge>
    <edge id=":-14388_7" function="internal">
        <lane id=":-14388_7_0" index="0" speed="16.66" length="2.93" shape="7390.05,6243.37 7392.90,6242.71"/>
    </edge>
    <edge id=":-14388_11" function="internal">
        <lane id=":-14388_11_0" index="0" speed="16.66" length="23.92" shape="7392.90,6242.71 7397.14,6241.72 7402.53,6243.91 7405.63,6249.20 7405.85,6256.81"/>
    </edge>
    <edge id=":-14388_8" function="internal">
        <lane id=":-14388_8_0" index="0" speed="16.66" length="11.22" shape="7399.40,6255.79 7400.47,6252.48 7399.98,6250.75 7397.93,6250.58 7394.31,6251.98"/>
    </edge>
    <edge id=":-14388_9" function="internal">
        <lane id=":-14388_9_0" index="0" speed="13.89" length="28.22" shape="7402.67,6256.31 7407.86,6244.73 7411.32,6236.52 7413.07,6231.67 7413.09,6230.20"/>
        <lane id=":-14388_9_1" index="1" speed="13.89" length="25.59" shape="7402.67,6256.31 7404.46,6252.36 7408.06,6244.55 7411.76,6236.87 7413.86,6233.30"/>
    </edge>
    <edge id=":-146_0" function="internal">
        <lane id=":-146_0_0" index="0" speed="13.89" length="13.17" shape="7217.78,5810.79 7217.26,5807.37 7216.60,5804.32 7215.72,5801.32 7214.57,5798.05"/>
    </edge>
    <edge id=":-146_1" function="internal">
        <lane id=":-146_1_0" index="0" speed="13.89" length="3.56" shape="7217.78,5810.79 7217.85,5807.23"/>
    </edge>
    <edge id=":-146_6" function="internal">
        <lane id=":-146_6_0" index="0" speed="13.89" length="10.23" shape="7217.85,5807.23 7219.02,5804.29 7221.30,5801.96 7224.69,5800.25"/>
    </edge>
    <edge id=":-146_2" function="internal">
        <lane id=":-146_2_0" index="0" speed="13.89" length="9.40" shape="7225.76,5803.26 7223.41,5804.44 7221.83,5806.02 7221.01,5808.00 7220.96,5810.39"/>
    </edge>
    <edge id=":-146_3" function="internal">
        <lane id=":-146_3_0" index="0" speed="13.89" length="14.03" shape="7225.76,5803.26 7222.00,5804.03 7218.89,5803.41 7216.41,5801.42 7214.57,5798.05"/>
    </edge>
    <edge id=":-146_4" function="internal">
        <lane id=":-146_4_0" index="0" speed="13.89" length="8.93" shape="7217.57,5796.93 7218.74,5799.07 7220.31,5800.34 7222.30,5800.73 7224.69,5800.25"/>
    </edge>
    <edge id=":-146_5" function="internal">
        <lane id=":-146_5_0" index="0" speed="13.89" length="13.91" shape="7217.57,5796.93 7218.75,5800.31 7219.68,5803.56 7220.41,5806.85 7220.96,5810.39"/>
    </edge>
    <edge id=":-15622_0" function="internal">
        <lane id=":-15622_0_0" index="0" speed="13.89" length="9.25" shape="7418.77,6124.54 7417.87,6122.28 7416.40,6120.85 7414.35,6120.26 7411.73,6120.50"/>
    </edge>
    <edge id=":-15622_1" function="internal">
        <lane id=":-15622_1_0" index="0" speed="13.89" length="12.79" shape="7418.77,6124.54 7416.27,6111.72"/>
        <lane id=":-15622_1_1" index="1" speed="13.89" length="12.79" shape="7421.89,6123.83 7419.44,6111.27"/>
        <lane id=":-15622_1_2" index="2" speed="13.89" length="12.79" shape="7425.01,6123.12 7422.61,6110.83"/>
    </edge>
    <edge id=":-15622_4" function="internal">
        <lane id=":-15622_4_0" index="0" speed="13.89" length="11.97" shape="7432.12,6109.51 7434.37,6120.98"/>
        <lane id=":-15622_4_1" index="1" speed="13.89" length="11.97" shape="7428.95,6109.95 7431.25,6121.70"/>
        <lane id=":-15622_4_2" index="2" speed="13.89" length="11.97" shape="7425.78,6110.39 7428.13,6122.41"/>
    </edge>
    <edge id=":-15622_7" function="internal">
        <lane id=":-15622_7_0" index="0" speed="13.89" length="2.15" shape="7425.78,6110.39 7425.42,6112.51"/>
    </edge>
    <edge id=":-15622_8" function="internal">
        <lane id=":-15622_8_0" index="0" speed="13.89" length="16.61" shape="7425.42,6112.51 7425.25,6113.55 7422.73,6116.29 7418.23,6118.61 7411.73,6120.50"/>
    </edge>
    <edge id=":-15722_0" function="internal">
        <lane id=":-15722_0_0" index="0" speed="13.89" length="9.07" shape="8060.38,6142.30 8057.88,6141.67 8055.97,6142.08 8054.65,6143.53 8053.93,6146.01"/>
    </edge>
    <edge id=":-15722_1" function="internal">
        <lane id=":-15722_1_0" index="0" speed="13.89" length="14.66" shape="8060.38,6142.30 8056.66,6140.29 8054.12,6137.77 8052.75,6134.75 8052.55,6131.22"/>
    </edge>
    <edge id=":-15722_2" function="internal">
        <lane id=":-15722_2_0" index="0" speed="13.89" length="10.52" shape="8055.74,6131.55 8055.90,6133.98 8056.93,6136.09 8058.83,6137.87 8061.59,6139.34"/>
    </edge>
    <edge id=":-15722_3" function="internal">
        <lane id=":-15722_3_0" index="0" speed="13.89" length="14.57" shape="8055.74,6131.55 8053.93,6146.01"/>
    </edge>
    <edge id=":-15722_4" function="internal">
        <lane id=":-15722_4_0" index="0" speed="13.89" length="14.45" shape="8050.76,6145.56 8052.55,6131.22"/>
    </edge>
    <edge id=":-15722_5" function="internal">
        <lane id=":-15722_5_0" index="0" speed="13.89" length="4.23" shape="8050.76,6145.56 8051.94,6141.50"/>
    </edge>
    <edge id=":-15722_6" function="internal">
        <lane id=":-15722_6_0" index="0" speed="13.89" length="11.00" shape="8051.94,6141.50 8051.97,6141.39 8054.18,6138.97 8057.39,6138.29 8061.59,6139.34"/>
    </edge>
    <edge id=":-15798_0" function="internal">
        <lane id=":-15798_0_0" index="0" speed="15.28" length="6.77" shape="7609.33,6002.85 7607.52,6002.84 7606.28,6002.96 7605.08,6003.31 7603.41,6003.98"/>
        <lane id=":-15798_0_1" index="1" speed="15.28" length="6.77" shape="7609.40,5999.65 7607.20,5999.64 7605.69,5999.79 7604.23,6000.21 7602.19,6001.02"/>
    </edge>
    <edge id=":-15798_2" function="internal">
        <lane id=":-15798_2_0" index="0" speed="13.89" length="8.76" shape="7602.17,5989.52 7603.15,5991.10 7604.70,5992.26 7606.83,5992.97 7609.53,5993.26"/>
    </edge>
    <edge id=":-15798_3" function="internal">
        <lane id=":-15798_3_0" index="0" speed="15.28" length="12.44" shape="7602.17,5989.52 7603.60,5993.97 7604.08,5997.37 7603.61,5999.72 7602.19,6001.02"/>
    </edge>
    <edge id=":-15798_4" function="internal">
        <lane id=":-15798_4_0" index="0" speed="15.28" length="9.41" shape="7599.76,5995.10 7602.53,5994.00 7604.51,5993.43 7606.56,5993.23 7609.53,5993.26"/>
        <lane id=":-15798_4_1" index="1" speed="15.28" length="9.41" shape="7600.97,5998.06 7603.38,5997.11 7605.10,5996.61 7606.88,5996.44 7609.47,5996.46"/>
    </edge>
    <edge id=":-15890_0" function="internal">
        <lane id=":-15890_0_0" index="0" speed="13.89" length="1.31" shape="7335.41,5524.09 7335.27,5523.79 7335.07,5523.53 7334.83,5523.33 7334.54,5523.17"/>
    </edge>
    <edge id=":-15890_1" function="internal">
        <lane id=":-15890_1_0" index="0" speed="13.89" length="11.82" shape="7339.55,5511.39 7342.20,5512.83 7344.40,5514.70 7346.15,5517.00 7347.45,5519.73"/>
        <lane id=":-15890_1_1" index="1" speed="13.89" length="9.19" shape="7338.29,5514.33 7340.36,5515.45 7342.07,5516.91 7343.43,5518.70 7344.44,5520.82"/>
    </edge>
    <edge id=":-16690_0" function="internal">
        <lane id=":-16690_0_0" index="0" speed="13.89" length="11.25" shape="7539.71,6183.49 7537.37,6172.48"/>
    </edge>
    <edge id=":-16690_1" function="internal">
        <lane id=":-16690_1_0" index="0" speed="13.89" length="4.09" shape="7543.98,6176.70 7541.50,6176.95 7539.98,6176.45"/>
    </edge>
    <edge id=":-16690_2" function="internal">
        <lane id=":-16690_2_0" index="0" speed="13.89" length="4.95" shape="7539.98,6176.45 7539.57,6176.32 7538.20,6174.84 7537.37,6172.48"/>
    </edge>
    <edge id=":-17046_0" function="internal">
        <lane id=":-17046_0_0" index="0" speed="15.28" length="8.98" shape="7718.14,6187.09 7716.20,6185.57 7714.24,6185.04 7712.25,6185.48 7710.25,6186.91"/>
    </edge>
    <edge id=":-17046_1" function="internal">
        <lane id=":-17046_1_0" index="0" speed="16.67" length="20.02" shape="7718.14,6187.09 7713.98,6182.74 7711.24,6179.54 7708.90,6176.05 7705.92,6170.83"/>
        <lane id=":-17046_1_1" index="1" speed="16.67" length="20.02" shape="7720.44,6184.87 7716.42,6180.67 7713.82,6177.64 7711.59,6174.33 7708.72,6169.28"/>
    </edge>
    <edge id=":-17046_3" function="internal">
        <lane id=":-17046_3_0" index="0" speed="16.67" length="18.35" shape="7714.32,6166.19 7716.95,6170.80 7718.99,6173.83 7721.38,6176.59 7725.06,6180.43"/>
        <lane id=":-17046_3_1" index="1" speed="16.67" length="18.35" shape="7711.52,6167.74 7714.27,6172.57 7716.40,6175.73 7718.90,6178.63 7722.75,6182.65"/>
    </edge>
    <edge id=":-17046_5" function="internal">
        <lane id=":-17046_5_0" index="0" speed="15.28" length="4.41" shape="7711.52,6167.74 7713.05,6171.87"/>
    </edge>
    <edge id=":-17046_8" function="internal">
        <lane id=":-17046_8_0" index="0" speed="15.28" length="14.29" shape="7713.05,6171.87 7713.15,6172.12 7713.11,6176.39 7711.41,6180.55 7708.05,6184.58"/>
    </edge>
    <edge id=":-17046_6" function="internal">
        <lane id=":-17046_6_0" index="0" speed="15.28" length="10.18" shape="7703.64,6179.94 7705.59,6177.66 7706.61,6175.39 7706.72,6173.11 7705.92,6170.83"/>
    </edge>
    <edge id=":-17046_7" function="internal">
        <lane id=":-17046_7_0" index="0" speed="15.28" length="19.25" shape="7705.85,6182.26 7710.14,6179.21 7714.39,6178.26 7718.60,6179.41 7722.75,6182.65"/>
    </edge>
    <edge id=":-17258_0" function="internal">
        <lane id=":-17258_0_0" index="0" speed="13.89" length="9.03" shape="8041.82,6275.92 8039.34,6275.95 8037.47,6276.76 8036.21,6278.36 8035.56,6280.75"/>
    </edge>
    <edge id=":-17258_1" function="internal">
        <lane id=":-17258_1_0" index="0" speed="13.89" length="14.58" shape="8041.82,6275.92 8027.39,6273.88"/>
    </edge>
    <edge id=":-17258_2" function="internal">
        <lane id=":-17258_2_0" index="0" speed="13.89" length="14.35" shape="8041.82,6275.92 8038.07,6274.86 8035.53,6272.84 8034.20,6269.86 8034.08,6265.92"/>
    </edge>
    <edge id=":-17258_3" function="internal">
        <lane id=":-17258_3_0" index="0" speed="13.89" length="9.27" shape="8037.26,6266.27 8037.34,6268.83 8038.19,6270.76 8039.83,6272.07 8042.25,6272.75"/>
    </edge>
    <edge id=":-17258_4" function="internal">
        <lane id=":-17258_4_0" index="0" speed="13.89" length="14.58" shape="8037.26,6266.27 8035.56,6280.75"/>
    </edge>
    <edge id=":-17258_5" function="internal">
        <lane id=":-17258_5_0" index="0" speed="13.89" length="4.15" shape="8037.26,6266.27 8036.28,6270.10 8036.15,6270.26"/>
    </edge>
    <edge id=":-17258_12" function="internal">
        <lane id=":-17258_12_0" index="0" speed="13.89" length="10.19" shape="8036.15,6270.26 8034.30,6272.64 8031.34,6273.91 8027.39,6273.88"/>
    </edge>
    <edge id=":-17258_6" function="internal">
        <lane id=":-17258_6_0" index="0" speed="13.89" length="9.03" shape="8027.86,6270.72 8030.35,6270.73 8032.22,6269.94 8033.46,6268.33 8034.08,6265.92"/>
    </edge>
    <edge id=":-17258_7" function="internal">
        <lane id=":-17258_7_0" index="0" speed="13.89" length="14.53" shape="8027.86,6270.72 8042.25,6272.75"/>
    </edge>
    <edge id=":-17258_8" function="internal">
        <lane id=":-17258_8_0" index="0" speed="13.89" length="14.35" shape="8027.86,6270.72 8031.64,6271.84 8034.18,6273.88 8035.49,6276.85 8035.56,6280.75"/>
    </edge>
    <edge id=":-17258_9" function="internal">
        <lane id=":-17258_9_0" index="0" speed="13.89" length="9.27" shape="8032.39,6280.35 8032.34,6277.84 8031.49,6275.93 8029.84,6274.61 8027.39,6273.88"/>
    </edge>
    <edge id=":-17258_10" function="internal">
        <lane id=":-17258_10_0" index="0" speed="13.89" length="14.53" shape="8032.39,6280.35 8034.08,6265.92"/>
    </edge>
    <edge id=":-17258_11" function="internal">
        <lane id=":-17258_11_0" index="0" speed="13.89" length="4.02" shape="8032.39,6280.35 8033.41,6276.59 8033.49,6276.50"/>
    </edge>
    <edge id=":-17258_13" function="internal">
        <lane id=":-17258_13_0" index="0" speed="13.89" length="10.21" shape="8033.49,6276.50 8035.40,6274.07 8038.34,6272.79 8042.25,6272.75"/>
    </edge>
    <edge id=":-17268_0" function="internal">
        <lane id=":-17268_0_0" index="0" speed="15.28" length="9.42" shape="7302.74,6064.26 7301.78,6067.01 7302.11,6068.78 7303.72,6069.56 7306.63,6069.36"/>
    </edge>
    <edge id=":-17268_1" function="internal">
        <lane id=":-17268_1_0" index="0" speed="13.89" length="30.32" shape="7302.74,6064.26 7289.47,6091.47"/>