<?xml version="1.0" encoding="UTF-8"?>

<!-- generated on 2024-02-26 09:24:58 by Eclipse SUMO netconvert Version 1.18.0
<configuration xmlns:xsi="http://www.w3.org/2001/XMLSchema-instance" xsi:noNamespaceSchemaLocation="http://sumo.dlr.de/xsd/netconvertConfiguration.xsd">

    <input>
        <sumo-net-file value="/home/svadlmat/UTC/utc/data/maps/sumo/lust.net.xml"/>
    </input>

    <output>
        <output-file value="/home/svadlmat/UTC/utc/data/maps/sumo/lust1.net.xml"/>
    </output>

    <processing>
        <geometry.min-radius.fix.railways value="false"/>
        <geometry.max-grade.fix value="false"/>
        <offset.disable-normalization value="true"/>
        <lefthand value="0"/>
    </processing>

    <edge_removal>
        <keep-edges.explicit value="-30384#3, -30660, -30898, &#45;&#45;31602#3, -32028#1, &#45;&#45;30842#4, &#45;&#45;32924#10, &#45;&#45;32924#11, &#45;&#45;32924#9, -30892#0, -30418#3, -32644#1, &#45;&#45;32212, &#45;&#45;30892#7, -30770#2, &#45;&#45;30872#10, -30298, -32886, &#45;&#45;32924#8, -30842#2, -32786#5, &#45;&#45;30842#0, &#45;&#45;30262#2, -31564#3, -31564#5, &#45;&#45;32750#8, &#45;&#45;30892#14, -32924#7, &#45;&#45;32886, &#45;&#45;31564#3, -32750#10, -30892#7, &#45;&#45;32028#1, &#45;&#45;32786#2, -31610#1, -31734, &#45;&#45;30892#2, -30556, -32028#2, &#45;&#45;30948, &#45;&#45;32818#2, -32786#6, -30384#4, &#45;&#45;32750#11, &#45;&#45;30892#11, &#45;&#45;30842#2, -31602#1, -31382, -30598#1, -30892#9, -32270#0, -30892#14, &#45;&#45;30368, -32750#7, &#45;&#45;30892#1, -31606#0, -30872#7, &#45;&#45;30892#6, -32028#3, -31564#1, &#45;&#45;30418#2, -30892#11, -30262#0, &#45;&#45;31958, &#45;&#45;30872#9, -30418#1, -32786#1, &#45;&#45;30842#3, &#45;&#45;30892#12, &#45;&#45;32270#3, &#45;&#45;30770#3, -30300#0, -30262#1, -31564#4, -30892#10, &#45;&#45;31564#5, &#45;&#45;32924#13, -30842#1, -32818#2, &#45;&#45;30892#4, &#45;&#45;32786#0, &#45;&#45;32750#9, -32290, -31148, -31564#2, -30842#3, -32016, -32924#10, -32786#4, &#45;&#45;32924#7, -32270#2, -30384#0, -30770#0, &#45;&#45;30770#2, &#45;&#45;32750#6, -32768, -32786#3, &#45;&#45;30892#13, -32750#8, &#45;&#45;32750#5, &#45;&#45;32028#2, -32270#3, &#45;&#45;32270#0, &#45;&#45;31734, &#45;&#45;32028#0, &#45;&#45;30892#15, -30948, &#45;&#45;30872#8, &#45;&#45;32644#0, -32810#2, &#45;&#45;31986, &#45;&#45;30418#1, -30770#3, -32644#0, -31958, &#45;&#45;30892#8, &#45;&#45;31564#4, -30892#8, &#45;&#45;32786#3, -32644#2, -32818#0, -32138#1, &#45;&#45;31602#0, -30872#9, &#45;&#45;30892#9, -30892#13, -30418#4, &#45;&#45;32786#6, &#45;&#45;32786#1, -30892#12, -31986, -31602#2, &#45;&#45;31606#0, -30892#15, -30418#5, -30770#1, &#45;&#45;30872#7, &#45;&#45;31564#2, -32818#3, &#45;&#45;30262#0, &#45;&#45;31148, -32786#2, &#45;&#45;31564#1, -31610#2, -31804, -32750#9, -30892#5, -32924#12, -32750#11, -31254, &#45;&#45;32924#12, &#45;&#45;30842#1, &#45;&#45;30892#5, -31602#0, &#45;&#45;32138#1, &#45;&#45;32818#1, -30872#10, -32138#0, &#45;&#45;32786#5, -32924#8, &#45;&#45;31602#2, &#45;&#45;32270#2, &#45;&#45;32818#0, -30892#4, -32750#5, &#45;&#45;32138#0, -30520#2, -30598#0, -31476, -30300#1, &#45;&#45;32818#4, -31610#0, &#45;&#45;32028#3, &#45;&#45;31476, -32924#9, &#45;&#45;32786#4, &#45;&#45;32810#2, &#45;&#45;32818#3, -32786#0, &#45;&#45;31610#2, &#45;&#45;32924#6, &#45;&#45;31382, -32270#1, &#45;&#45;30418#6, &#45;&#45;30418#3, &#45;&#45;30418#0, -30892#6, -32924#11, &#45;&#45;30892#0, -30892#3, -32924#14, &#45;&#45;30770#1, &#45;&#45;30892#3, &#45;&#45;31610#0, -30520#1, -30870, -30384#2, -30598#2, -32818#1, -30892#1, -30892#2, -30842#0, &#45;&#45;30892#10, &#45;&#45;32644#1, &#45;&#45;32750#10, -31602#3, &#45;&#45;30418#5, &#45;&#45;31610#1, &#45;&#45;30770#0, -30842#4, -30262#2, &#45;&#45;32924#14, -30418#2, &#45;&#45;30418#4, -30418#6, -32212, -30418#0, &#45;&#45;32270#1, -30872#8, -32924#6, -30520#0, &#45;&#45;32750#7, -32924#13, -32818#4, &#45;&#45;32644#2, -30384#1, -30368, &#45;&#45;31602#1, -32028#0, &#45;&#45;30262#1, -32750#6, -31920"/>
    </edge_removal>

    <junctions>
        <no-turnarounds value="true"/>
        <junctions.corner-detail value="0"/>
        <junctions.limit-turn-speed value="-1.00"/>
        <rectangular-lane-cut value="0"/>
    </junctions>

    <pedestrian>
        <walkingareas value="0"/>
    </pedestrian>

</configuration>
-->

<net version="1.16" xmlns:xsi="http://www.w3.org/2001/XMLSchema-instance" xsi:noNamespaceSchemaLocation="http://sumo.dlr.de/xsd/net_file.xsd">

    <location netOffset="-285448.66,-5492398.13" convBoundary="5843.54,5752.98,6874.59,7139.70" origBoundary="6.030969,49.549099,6.216758,49.652578" projParameter="+proj=utm +zone=32 +ellps=WGS84 +datum=WGS84 +units=m +no_defs"/>

    <edge id=":-10290_0" function="internal">
        <lane id=":-10290_0_0" index="0" speed="13.89" length="9.03" shape="6257.72,6537.14 6256.66,6534.89 6255.14,6533.55 6253.16,6533.11 6250.71,6533.59"/>
    </edge>
    <edge id=":-10290_1" function="internal">
        <lane id=":-10290_1_0" index="0" speed="13.89" length="20.52" shape="6257.72,6537.14 6255.68,6529.31 6254.98,6523.48 6255.62,6519.66 6257.59,6517.84"/>
        <lane id=":-10290_1_1" index="1" speed="13.89" length="17.54" shape="6257.72,6537.14 6256.09,6530.65 6255.69,6525.78 6256.51,6522.53 6258.54,6520.89"/>
    </edge>
    <edge id=":-10290_3" function="internal">
        <lane id=":-10290_3_0" index="0" speed="13.89" length="11.36" shape="6261.40,6530.06 6250.71,6533.59"/>
        <lane id=":-10290_3_1" index="1" speed="13.89" length="11.36" shape="6260.45,6527.00 6249.66,6530.57"/>
        <lane id=":-10290_3_2" index="2" speed="13.89" length="11.36" shape="6259.49,6523.95 6248.61,6527.55"/>
    </edge>
    <edge id=":-10290_6" function="internal">
        <lane id=":-10290_6_0" index="0" speed="13.89" length="11.68" shape="6245.45,6518.48 6256.64,6514.78"/>
        <lane id=":-10290_6_1" index="1" speed="13.89" length="11.68" shape="6246.50,6521.50 6257.59,6517.84"/>
        <lane id=":-10290_6_2" index="2" speed="13.89" length="11.68" shape="6247.55,6524.52 6258.54,6520.89"/>
    </edge>
    <edge id=":-1086_0" function="internal">
        <lane id=":-1086_0_0" index="0" speed="13.89" length="13.24" shape="6535.03,6150.53 6533.32,6163.40"/>
        <lane id=":-1086_0_1" index="1" speed="13.89" length="13.24" shape="6531.88,6149.97 6530.14,6163.09"/>
        <lane id=":-1086_0_2" index="2" speed="13.89" length="13.24" shape="6528.73,6149.40 6526.95,6162.78"/>
    </edge>
    <edge id=":-1086_3" function="internal">
        <lane id=":-1086_3_0" index="0" speed="13.89" length="2.37" shape="6528.73,6149.40 6527.70,6151.53"/>
    </edge>
    <edge id=":-1086_11" function="internal">
        <lane id=":-1086_11_0" index="0" speed="13.89" length="16.82" shape="6527.70,6151.53 6527.21,6152.53 6523.96,6154.67 6518.98,6155.80 6512.27,6155.93"/>
    </edge>
    <edge id=":-1086_4" function="internal">
        <lane id=":-1086_4_0" index="0" speed="13.89" length="9.44" shape="6512.43,6152.74 6515.07,6152.53 6517.09,6151.62 6518.50,6150.01 6519.28,6147.70"/>
    </edge>
    <edge id=":-1086_5" function="internal">
        <lane id=":-1086_5_0" index="0" speed="13.89" length="22.90" shape="6512.43,6152.74 6520.52,6153.72 6526.17,6155.78 6529.38,6158.90 6530.14,6163.09"/>
        <lane id=":-1086_5_1" index="1" speed="13.89" length="19.98" shape="6512.43,6152.74 6519.12,6153.64 6523.77,6155.62 6526.38,6158.67 6526.95,6162.78"/>
    </edge>
    <edge id=":-1086_7" function="internal">
        <lane id=":-1086_7_0" index="0" speed="13.89" length="9.04" shape="6517.40,6161.86 6517.28,6159.37 6516.39,6157.55 6514.72,6156.41 6512.27,6155.93"/>
    </edge>
    <edge id=":-1086_8" function="internal">
        <lane id=":-1086_8_0" index="0" speed="13.89" length="14.02" shape="6517.40,6161.86 6519.28,6147.70"/>
        <lane id=":-1086_8_1" index="1" speed="13.89" length="14.02" shape="6520.58,6162.17 6522.43,6148.27"/>
        <lane id=":-1086_8_2" index="2" speed="13.89" length="14.02" shape="6523.77,6162.48 6525.58,6148.83"/>
    </edge>
    <edge id=":-11144_0" function="internal">
        <lane id=":-11144_0_0" index="0" speed="13.89" length="11.53" shape="6492.30,6361.40 6488.89,6362.56 6486.46,6364.15 6484.99,6366.18 6484.48,6368.65"/>
    </edge>
    <edge id=":-11144_1" function="internal">
        <lane id=":-11144_1_0" index="0" speed="13.89" length="29.69" shape="6492.30,6361.40 6486.30,6362.13 6477.49,6362.50 6468.68,6362.43 6462.69,6361.82"/>
    </edge>
    <edge id=":-11144_2" function="internal">
        <lane id=":-11144_2_0" index="0" speed="13.89" length="10.47" shape="6492.30,6361.40 6484.67,6362.42 6481.97,6361.75"/>
    </edge>
    <edge id=":-11144_16" function="internal">
        <lane id=":-11144_16_0" index="0" speed="13.89" length="12.65" shape="6481.97,6361.75 6479.57,6361.16 6476.98,6357.64 6476.92,6351.83"/>
    </edge>
    <edge id=":-11144_3" function="internal">
        <lane id=":-11144_3_0" index="0" speed="13.89" length="9.14" shape="6486.38,6353.46 6486.29,6356.14 6487.12,6357.84 6488.87,6358.56 6491.54,6358.29"/>
    </edge>
    <edge id=":-11144_4" function="internal">
        <lane id=":-11144_4_0" index="0" speed="13.89" length="15.86" shape="6486.38,6353.46 6485.54,6357.94 6484.97,6361.01 6484.62,6364.11 6484.48,6368.65"/>
        <lane id=":-11144_4_1" index="1" speed="13.89" length="15.86" shape="6483.23,6352.92 6482.36,6357.55 6481.77,6360.73 6481.42,6363.93 6481.28,6368.62"/>
        <lane id=":-11144_4_2" index="2" speed="13.89" length="15.86" shape="6480.07,6352.38 6479.19,6357.16 6478.58,6360.44 6478.22,6363.75 6478.08,6368.60"/>
    </edge>
    <edge id=":-11144_7" function="internal">
        <lane id=":-11144_7_0" index="0" speed="13.89" length="4.63" shape="6480.07,6352.38 6478.54,6356.75"/>
    </edge>
    <edge id=":-11144_17" function="internal">
        <lane id=":-11144_17_0" index="0" speed="13.89" length="18.27" shape="6478.54,6356.75 6478.14,6357.91 6474.59,6361.32 6469.44,6362.63 6462.69,6361.82"/>
    </edge>
    <edge id=":-11144_8" function="internal">
        <lane id=":-11144_8_0" index="0" speed="13.89" length="12.17" shape="6463.45,6358.71 6465.98,6358.73 6468.02,6357.41 6469.56,6354.75 6470.61,6350.75"/>
    </edge>
    <edge id=":-11144_9" function="internal">
        <lane id=":-11144_9_0" index="0" speed="13.89" length="28.18" shape="6463.45,6358.71 6469.21,6359.32 6477.50,6359.39 6485.79,6359.02 6491.54,6358.29"/>
    </edge>
    <edge id=":-11144_10" function="internal">
        <lane id=":-11144_10_0" index="0" speed="13.89" length="3.49" shape="6463.45,6358.71 6466.79,6359.74"/>
    </edge>
    <edge id=":-11144_18" function="internal">
        <lane id=":-11144_18_0" index="0" speed="13.89" length="15.25" shape="6466.79,6359.74 6469.87,6360.69 6474.45,6362.99 6477.19,6365.63 6478.08,6368.60"/>
    </edge>
    <edge id=":-11144_11" function="internal">
        <lane id=":-11144_11_0" index="0" speed="13.89" length="9.66" shape="6468.48,6368.52 6468.13,6366.13 6467.05,6364.21 6465.24,6362.78 6462.69,6361.82"/>
    </edge>
    <edge id=":-11144_12" function="internal">
        <lane id=":-11144_12_0" index="0" speed="13.89" length="17.42" shape="6468.48,6368.52 6468.63,6363.21 6469.00,6359.59 6469.65,6355.99 6470.61,6350.75"/>
        <lane id=":-11144_12_1" index="1" speed="13.89" length="17.42" shape="6471.68,6368.55 6471.83,6363.39 6472.20,6359.87 6472.83,6356.38 6473.77,6351.29"/>
        <lane id=":-11144_12_2" index="2" speed="13.89" length="17.42" shape="6474.88,6368.57 6475.03,6363.57 6475.39,6360.16 6476.01,6356.77 6476.92,6351.83"/>
    </edge>
    <edge id=":-11144_15" function="internal">
        <lane id=":-11144_15_0" index="0" speed="13.89" length="2.42" shape="6474.88,6368.57 6475.69,6366.29"/>
    </edge>
    <edge id=":-11144_19" function="internal">
        <lane id=":-11144_19_0" index="0" speed="13.89" length="18.21" shape="6475.69,6366.29 6475.94,6365.58 6479.07,6362.87 6484.27,6360.44 6491.54,6358.29"/>
    </edge>
    <edge id=":-11174_0" function="internal">
        <lane id=":-11174_0_0" index="0" speed="13.89" length="8.78" shape="6057.62,6891.81 6058.26,6894.12 6059.48,6895.70 6061.29,6896.55 6063.68,6896.67"/>
    </edge>
    <edge id=":-12112_0" function="internal">
        <lane id=":-12112_0_0" index="0" speed="13.89" length="8.26" shape="6539.48,6120.84 6539.88,6123.06 6540.93,6124.33 6542.44,6125.44 6544.19,6127.21"/>
    </edge>
    <edge id=":-12112_1" function="internal">
        <lane id=":-12112_1_0" index="0" speed="13.89" length="10.14" shape="6536.28,6120.83 6536.75,6123.96 6537.74,6126.06 6538.55,6128.14 6538.50,6131.23"/>
        <lane id=":-12112_1_1" index="1" speed="13.89" length="10.14" shape="6533.08,6120.82 6533.56,6123.79 6534.55,6125.77 6535.37,6127.74 6535.35,6130.66"/>
        <lane id=":-12112_1_2" index="2" speed="13.89" length="10.14" shape="6533.08,6120.82 6533.06,6123.59 6532.95,6125.49 6532.68,6127.37 6532.20,6130.10"/>
    </edge>
    <edge id=":-12112_4" function="internal">
        <lane id=":-12112_4_0" index="0" speed="13.89" length="8.22" shape="6522.75,6128.40 6523.15,6126.16 6523.37,6124.62 6523.46,6123.06 6523.48,6120.79"/>
        <lane id=":-12112_4_1" index="1" speed="13.89" length="8.22" shape="6525.90,6128.96 6526.33,6126.56 6526.56,6124.91 6526.66,6123.24 6526.68,6120.80"/>
        <lane id=":-12112_4_2" index="2" speed="13.89" length="8.22" shape="6529.05,6129.53 6529.51,6126.97 6529.75,6125.20 6529.86,6123.42 6529.88,6120.81"/>
    </edge>
    <edge id=":-12112_7" function="internal">
        <lane id=":-12112_7_0" index="0" speed="13.89" length="23.92" shape="6529.05,6129.53 6531.21,6122.63 6534.45,6119.94 6538.78,6121.47 6544.19,6127.21"/>
    </edge>
    <edge id=":-13602_0" function="internal">
        <lane id=":-13602_0_0" index="0" speed="13.89" length="15.87" shape="6168.62,6728.01 6167.54,6724.78 6165.21,6722.24 6161.62,6720.40 6156.78,6719.24"/>
    </edge>
    <edge id=":-13602_1" function="internal">
        <lane id=":-13602_1_0" index="0" speed="13.89" length="30.12" shape="6168.62,6728.01 6164.23,6698.21"/>
    </edge>
    <edge id=":-13602_2" function="internal">
        <lane id=":-13602_2_0" index="0" speed="13.89" length="5.72" shape="6168.62,6728.01 6168.49,6722.29"/>
    </edge>
    <edge id=":-13602_16" function="internal">
        <lane id=":-13602_16_0" index="0" speed="13.89" length="16.34" shape="6168.49,6722.29 6168.45,6720.67 6170.10,6715.74 6173.55,6713.23 6178.81,6713.13"/>
    </edge>
    <edge id=":-13602_3" function="internal">
        <lane id=":-13602_3_0" index="0" speed="13.89" length="9.09" shape="6177.11,6722.58 6174.50,6722.48 6172.74,6723.29 6171.84,6725.00 6171.79,6727.61"/>
    </edge>
    <edge id=":-13602_4" function="internal">
        <lane id=":-13602_4_0" index="0" speed="13.89" length="20.70" shape="6177.11,6722.58 6156.78,6719.24"/>
        <lane id=":-13602_4_1" index="1" speed="13.89" length="20.70" shape="6177.67,6719.43 6157.25,6716.07"/>
        <lane id=":-13602_4_2" index="2" speed="13.89" length="20.70" shape="6178.24,6716.28 6157.72,6712.91"/>
    </edge>
    <edge id=":-13602_7" function="internal">
        <lane id=":-13602_7_0" index="0" speed="13.89" length="3.76" shape="6178.24,6716.28 6174.72,6714.97"/>
    </edge>
    <edge id=":-13602_17" function="internal">
        <lane id=":-13602_17_0" index="0" speed="13.89" length="20.68" shape="6174.72,6714.97 6173.13,6714.39 6169.09,6710.74 6166.13,6705.35 6164.23,6698.21"/>
    </edge>
    <edge id=":-13602_8" function="internal">
        <lane id=":-13602_8_0" index="0" speed="13.89" length="16.56" shape="6167.39,6697.67 6168.63,6700.91 6171.13,6703.52 6174.90,6705.49 6179.94,6706.83"/>
    </edge>
    <edge id=":-13602_9" function="internal">
        <lane id=":-13602_9_0" index="0" speed="13.89" length="30.26" shape="6167.39,6697.67 6171.79,6727.61"/>
    </edge>
    <edge id=":-13602_10" function="internal">
        <lane id=":-13602_10_0" index="0" speed="13.89" length="7.51" shape="6167.39,6697.67 6167.87,6705.04 6167.83,6705.16"/>
    </edge>
    <edge id=":-13602_18" function="internal">
        <lane id=":-13602_18_0" index="0" speed="13.89" length="14.68" shape="6167.83,6705.16 6166.42,6710.03 6163.04,6712.66 6157.72,6712.91"/>
    </edge>
    <edge id=":-13602_11" function="internal">
        <lane id=":-13602_11_0" index="0" speed="13.89" length="9.10" shape="6159.13,6703.41 6161.75,6703.43 6163.48,6702.57 6164.30,6700.83 6164.23,6698.21"/>
    </edge>
    <edge id=":-13602_12" function="internal">
        <lane id=":-13602_12_0" index="0" speed="13.89" length="20.99" shape="6159.13,6703.41 6179.94,6706.83"/>
        <lane id=":-13602_12_1" index="1" speed="13.89" length="20.99" shape="6158.66,6706.58 6179.38,6709.98"/>
        <lane id=":-13602_12_2" index="2" speed="13.89" length="20.99" shape="6158.19,6709.74 6178.81,6713.13"/>
    </edge>
    <edge id=":-13602_15" function="internal">
        <lane id=":-13602_15_0" index="0" speed="13.89" length="4.35" shape="6158.19,6709.74 6162.31,6711.14"/>
    </edge>
    <edge id=":-13602_19" function="internal">
        <lane id=":-13602_19_0" index="0" speed="13.89" length="19.90" shape="6162.31,6711.14 6163.39,6711.51 6167.38,6715.07 6170.19,6720.44 6171.79,6727.61"/>
    </edge>
    <edge id=":-13926_0" function="internal">
        <lane id=":-13926_0_0" index="0" speed="13.89" length="14.67" shape="6126.77,6167.81 6113.37,6161.82"/>
    </edge>
    <edge id=":-13926_1" function="internal">
        <lane id=":-13926_1_0" index="0" speed="13.89" length="4.42" shape="6126.77,6167.81 6123.03,6165.46"/>
    </edge>
    <edge id=":-13926_6" function="internal">
        <lane id=":-13926_6_0" index="0" speed="13.89" length="11.00" shape="6123.03,6165.46 6121.33,6162.64 6121.66,6159.37 6124.03,6155.64"/>
    </edge>
    <edge id=":-13926_2" function="internal">
        <lane id=":-13926_2_0" index="0" speed="13.89" length="9.08" shape="6126.46,6157.72 6125.06,6159.92 6124.87,6161.85 6125.87,6163.50 6128.07,6164.89"/>
    </edge>
    <edge id=":-13926_3" function="internal">
        <lane id=":-13926_3_0" index="0" speed="13.89" length="14.81" shape="6126.46,6157.72 6123.33,6160.68 6120.11,6162.34 6116.79,6162.73 6113.37,6161.82"/>
    </edge>
    <edge id=":-13926_4" function="internal">
        <lane id=":-13926_4_0" index="0" speed="13.89" length="10.67" shape="6114.68,6158.90 6117.04,6159.49 6119.39,6159.14 6121.72,6157.86 6124.03,6155.64"/>
    </edge>
    <edge id=":-13926_5" function="internal">
        <lane id=":-13926_5_0" index="0" speed="13.89" length="14.67" shape="6114.68,6158.90 6128.07,6164.89"/>
    </edge>
    <edge id=":-14376_0" function="internal">
        <lane id=":-14376_0_0" index="0" speed="13.89" length="21.61" shape="6423.73,7100.14 6425.86,7105.35 6425.20,7109.67 6421.74,7113.10 6415.50,7115.63"/>
    </edge>
    <edge id=":-14376_1" function="internal">
        <lane id=":-14376_1_0" index="0" speed="13.89" length="9.59" shape="6413.74,7112.80 6415.96,7111.75 6417.01,7110.14 6416.88,7107.96 6415.58,7105.22"/>
        <lane id=":-14376_1_1" index="1" speed="13.89" length="12.75" shape="6413.74,7112.80 6417.34,7111.31 6419.30,7109.27 6419.62,7106.68 6418.30,7103.52"/>
        <lane id=":-14376_1_2" index="2" speed="13.89" length="16.03" shape="6413.74,7112.80 6418.72,7110.88 6421.59,7108.41 6422.35,7105.39 6421.01,7101.83"/>
    </edge>
    <edge id=":-14780_0" function="internal">
        <lane id=":-14780_0_0" index="0" speed="13.89" length="9.18" shape="6186.10,5974.68 6183.94,5973.38 6181.94,5973.17 6180.09,5974.05 6178.39,5976.01"/>
    </edge>
    <edge id=":-14780_1" function="internal">
        <lane id=":-14780_1_0" index="0" speed="13.89" length="15.25" shape="6186.10,5974.68 6183.14,5972.32 6180.06,5970.03 6176.90,5967.85 6173.72,5965.81"/>
    </edge>
    <edge id=":-14780_2" function="internal">
        <lane id=":-14780_2_0" index="0" speed="13.89" length="14.97" shape="6186.10,5974.68 6183.83,5971.86 6182.42,5968.19 6182.02,5964.31 6182.78,5960.87"/>
    </edge>
    <edge id=":-14780_3" function="internal">
        <lane id=":-14780_3_0" index="0" speed="13.89" length="11.17" shape="6185.68,5962.23 6184.83,5965.01 6184.95,5967.60 6186.05,5970.00 6188.13,5972.20"/>
    </edge>
    <edge id=":-14780_4" function="internal">
        <lane id=":-14780_4_0" index="0" speed="13.89" length="15.60" shape="6185.68,5962.23 6184.03,5965.70 6182.26,5969.24 6180.38,5972.72 6178.39,5976.01"/>
    </edge>
    <edge id=":-14780_5" function="internal">
        <lane id=":-14780_5_0" index="0" speed="13.89" length="4.23" shape="6185.68,5962.23 6183.45,5965.64 6183.32,5965.72"/>
    </edge>
    <edge id=":-14780_12" function="internal">
        <lane id=":-14780_12_0" index="0" speed="13.89" length="10.42" shape="6183.32,5965.72 6180.70,5967.38 6177.46,5967.43 6173.72,5965.81"/>
    </edge>
    <edge id=":-14780_6" function="internal">
        <lane id=":-14780_6_0" index="0" speed="13.89" length="9.04" shape="6175.40,5963.08 6177.71,5964.09 6179.71,5964.05 6181.40,5962.98 6182.78,5960.87"/>
    </edge>
    <edge id=":-14780_7" function="internal">
        <lane id=":-14780_7_0" index="0" speed="13.89" length="15.68" shape="6175.40,5963.08 6178.64,5965.17 6181.91,5967.44 6185.11,5969.81 6188.13,5972.20"/>
    </edge>
    <edge id=":-14780_8" function="internal">
        <lane id=":-14780_8_0" index="0" speed="13.89" length="15.20" shape="6175.40,5963.08 6178.63,5965.77 6180.20,5968.81 6180.12,5972.23 6178.39,5976.01"/>
    </edge>
    <edge id=":-14780_9" function="internal">
        <lane id=":-14780_9_0" index="0" speed="13.89" length="10.23" shape="6175.52,5974.55 6176.73,5971.96 6176.83,5969.64 6175.83,5967.59 6173.72,5965.81"/>
    </edge>
    <edge id=":-14780_10" function="internal">
        <lane id=":-14780_10_0" index="0" speed="13.89" length="15.50" shape="6175.52,5974.55 6177.50,5971.28 6179.38,5967.84 6181.14,5964.33 6182.78,5960.87"/>
    </edge>
    <edge id=":-14780_11" function="internal">
        <lane id=":-14780_11_0" index="0" speed="13.89" length="4.19" shape="6175.52,5974.55 6178.25,5971.37"/>
    </edge>
    <edge id=":-14780_13" function="internal">
        <lane id=":-14780_13_0" index="0" speed="13.89" length="10.85" shape="6178.25,5971.37 6178.32,5971.29 6181.36,5969.81 6184.63,5970.12 6188.13,5972.20"/>
    </edge>
    <edge id=":-14904_0" function="internal">
        <lane id=":-14904_0_0" index="0" speed="13.89" length="10.33" shape="6232.36,6112.85 6224.55,6106.10"/>
    </edge>
    <edge id=":-14904_1" function="internal">
        <lane id=":-14904_1_0" index="0" speed="13.89" length="3.79" shape="6232.26,6105.74 6230.30,6107.12 6228.96,6107.47"/>
    </edge>
    <edge id=":-14904_2" function="internal">
        <lane id=":-14904_2_0" index="0" speed="13.89" length="4.81" shape="6228.96,6107.47 6228.36,6107.63 6226.44,6107.29 6224.55,6106.10"/>
    </edge>
    <edge id=":-15036_0" function="internal">
        <lane id=":-15036_0_0" index="0" speed="13.89" length="9.21" shape="6358.19,5922.02 6357.51,5919.36 6356.25,5918.00 6354.39,5917.94 6351.95,5919.19"/>
    </edge>
    <edge id=":-15036_1" function="internal">
        <lane id=":-15036_1_0" index="0" speed="13.89" length="16.16" shape="6358.19,5922.02 6357.64,5918.13 6356.87,5914.05 6355.87,5910.02 6354.66,5906.29"/>
    </edge>
    <edge id=":-15036_2" function="internal">
        <lane id=":-15036_2_0" index="0" speed="13.89" length="16.50" shape="6358.19,5922.02 6358.16,5917.23 6359.26,5913.35 6361.50,5910.37 6364.87,5908.31"/>
    </edge>
    <edge id=":-15036_3" function="internal">
        <lane id=":-15036_3_0" index="0" speed="13.89" length="12.32" shape="6366.08,5911.27 6363.67,5912.79 6362.08,5915.02 6361.32,5917.98 6361.37,5921.66"/>
    </edge>
    <edge id=":-15036_4" function="internal">
        <lane id=":-15036_4_0" index="0" speed="13.89" length="16.22" shape="6366.08,5911.27 6362.49,5912.91 6358.82,5914.87 6355.24,5917.02 6351.95,5919.19"/>
    </edge>
    <edge id=":-15036_5" function="internal">
        <lane id=":-15036_5_0" index="0" speed="13.89" length="3.79" shape="6366.08,5911.27 6362.40,5912.20"/>
    </edge>
    <edge id=":-15036_12" function="internal">
        <lane id=":-15036_12_0" index="0" speed="13.89" length="10.51" shape="6362.40,5912.20 6362.26,5912.23 6359.08,5911.72 6356.55,5909.74 6354.66,5906.29"/>
    </edge>
    <edge id=":-15036_6" function="internal">
        <lane id=":-15036_6_0" index="0" speed="13.89" length="9.03" shape="6357.65,5905.16 6358.85,5907.34 6360.45,5908.59 6362.45,5908.92 6364.87,5908.31"/>
    </edge>
    <edge id=":-15036_7" function="internal">
        <lane id=":-15036_7_0" index="0" speed="13.89" length="16.94" shape="6357.65,5905.16 6358.90,5909.02 6359.96,5913.30 6360.79,5917.65 6361.37,5921.66"/>
    </edge>
    <edge id=":-15036_8" function="internal">
        <lane id=":-15036_8_0" index="0" speed="13.89" length="16.46" shape="6357.65,5905.16 6358.42,5909.04 6357.73,5912.67 6355.57,5916.05 6351.95,5919.19"/>
    </edge>
    <edge id=":-15036_9" function="internal">
        <lane id=":-15036_9_0" index="0" speed="13.89" length="12.18" shape="6350.12,5916.56 6352.90,5914.19 6354.59,5911.69 6355.17,5909.05 6354.66,5906.29"/>
    </edge>
    <edge id=":-15036_10" function="internal">
        <lane id=":-15036_10_0" index="0" speed="13.89" length="16.92" shape="6350.12,5916.56 6353.51,5914.34 6357.30,5912.08 6361.19,5910.00 6364.87,5908.31"/>
    </edge>
    <edge id=":-15036_11" function="internal">
        <lane id=":-15036_11_0" index="0" speed="13.89" length="5.09" shape="6350.12,5916.56 6354.53,5914.31 6354.68,5914.32"/>
    </edge>
    <edge id=":-15036_13" function="internal">
        <lane id=":-15036_13_0" index="0" speed="13.89" length="11.50" shape="6354.68,5914.32 6357.88,5914.41 6360.15,5916.86 6361.37,5921.66"/>
    </edge>
    <edge id=":-15428_0" function="internal">
        <lane id=":-15428_0_0" index="0" speed="13.89" length="15.58" shape="6126.54,6056.35 6124.35,6059.51 6121.91,6062.61 6119.28,6065.56 6116.55,6068.26"/>
    </edge>
    <edge id=":-15428_1" function="internal">
        <lane id=":-15428_1_0" index="0" speed="13.89" length="4.48" shape="6126.54,6056.35 6123.82,6059.47 6123.50,6059.61"/>
    </edge>
    <edge id=":-15428_6" function="internal">
        <lane id=":-15428_6_0" index="0" speed="13.89" length="10.28" shape="6123.50,6059.61 6120.86,6060.80 6117.64,6060.34 6114.17,6058.10"/>
    </edge>
    <edge id=":-15428_2" function="internal">
        <lane id=":-15428_2_0" index="0" speed="13.89" length="9.05" shape="6116.27,6055.69 6118.40,6057.06 6120.37,6057.34 6122.19,6056.53 6123.85,6054.62"/>
    </edge>
    <edge id=":-15428_3" function="internal">
        <lane id=":-15428_3_0" index="0" speed="13.89" length="14.72" shape="6116.27,6055.69 6118.97,6058.81 6119.91,6061.94 6119.11,6065.10 6116.55,6068.26"/>
    </edge>
    <edge id=":-15428_4" function="internal">
        <lane id=":-15428_4_0" index="0" speed="13.89" length="9.15" shape="6114.38,6065.91 6115.96,6063.95 6116.45,6062.00 6115.85,6060.05 6114.17,6058.10"/>
    </edge>
    <edge id=":-15428_5" function="internal">
        <lane id=":-15428_5_0" index="0" speed="13.89" length="14.78" shape="6114.38,6065.91 6117.03,6063.31 6119.47,6060.57 6121.74,6057.68 6123.85,6054.62"/>
    </edge>
    <edge id=":-158_0" function="internal">
        <lane id=":-158_0_0" index="0" speed="13.89" length="20.41" shape="6373.67,7021.11 6372.97,7014.98 6372.85,7010.75 6373.00,7006.50 6373.12,7000.30"/>
        <lane id=":-158_0_1" index="1" speed="13.89" length="20.41" shape="6376.84,7020.67 6376.16,7014.66 6376.05,7010.52 6376.20,7006.36 6376.32,7000.30"/>
        <lane id=":-158_0_2" index="2" speed="13.89" length="20.41" shape="6380.01,7020.22 6379.35,7014.35 6379.25,7010.30 6379.40,7006.23 6379.52,7000.31"/>
    </edge>
    <edge id=":-158_3" function="internal">
        <lane id=":-158_3_0" index="0" speed="15.28" length="1.33" shape="6380.01,7020.22 6380.92,7019.24"/>
    </edge>
    <edge id=":-158_8" function="internal">
        <lane id=":-158_8_0" index="0" speed="15.28" length="21.18" shape="6380.92,7019.24 6382.48,7017.57 6388.11,7012.65 6393.91,7007.80 6396.88,7005.34"/>
    </edge>
    <edge id=":-158_4" function="internal">
        <lane id=":-158_4_0" index="0" speed="15.28" length="12.51" shape="6389.24,7000.32 6388.41,7004.24 6389.06,7005.98 6391.19,7005.53 6394.80,7002.91"/>
    </edge>
    <edge id=":-158_5" function="internal">
        <lane id=":-158_5_0" index="0" speed="13.89" length="19.14" shape="6389.24,7000.32 6387.93,7005.66 6387.85,7009.47 6388.54,7013.34 6389.52,7018.87"/>
        <lane id=":-158_5_1" index="1" speed="13.89" length="19.14" shape="6385.92,7000.31 6385.80,7005.97 6385.64,7009.85 6385.72,7013.72 6386.35,7019.32"/>
        <lane id=":-158_5_2" index="2" speed="13.89" length="19.14" shape="6382.72,7000.31 6382.60,7006.10 6382.44,7010.08 6382.53,7014.03 6383.18,7019.77"/>
    </edge>
    <edge id=":-15824_0" function="internal">
        <lane id=":-15824_0_0" index="0" speed="13.89" length="9.04" shape="6496.40,6022.74 6495.29,6020.52 6493.74,6019.20 6491.74,6018.79 6489.31,6019.27"/>
    </edge>
    <edge id=":-15824_1" function="internal">
        <lane id=":-15824_1_0" index="0" speed="13.89" length="11.37" shape="6496.40,6022.74 6492.65,6012.13"/>
        <lane id=":-15824_1_1" index="1" speed="13.89" length="11.37" shape="6499.44,6021.73 6495.65,6011.01"/>
        <lane id=":-15824_1_2" index="2" speed="13.89" length="11.37" shape="6502.47,6020.72 6498.65,6009.89"/>
    </edge>
    <edge id=":-15824_4" function="internal">
        <lane id=":-15824_4_0" index="0" speed="13.89" length="11.71" shape="6507.64,6006.53 6511.58,6017.68"/>
        <lane id=":-15824_4_1" index="1" speed="13.89" length="11.71" shape="6504.64,6007.65 6508.54,6018.69"/>