<?xml version="1.0" encoding="UTF-8"?>

<!-- generated on 2024-02-26 09:31:20 by Eclipse SUMO netedit Version 1.16.0
<configuration xmlns:xsi="http://www.w3.org/2001/XMLSchema-instance" xsi:noNamespaceSchemaLocation="http://sumo.dlr.de/xsd/netconvertConfiguration.xsd">

    <input>
        <sumo-net-file value="C:\Users\Mates\Desktop\maps\lust0.net.xml"/>
    </input>

    <output>
        <output-file value="C:\Users\Mates\Desktop\maps\lust0.net.xml"/>
    </output>

    <processing>
        <geometry.min-radius.fix.railways value="false"/>
        <geometry.max-grade.fix value="false"/>
        <offset.disable-normalization value="true"/>
        <lefthand value="0"/>
    </processing>

    <junctions>
        <no-turnarounds value="true"/>
        <junctions.corner-detail value="0"/>
        <junctions.limit-turn-speed value="-1.00"/>
        <rectangular-lane-cut value="0"/>
    </junctions>

    <pedestrian>
        <walkingareas value="0"/>
    </pedestrian>

</configuration>
-->

<net version="1.16" xmlns:xsi="http://www.w3.org/2001/XMLSchema-instance" xsi:noNamespaceSchemaLocation="http://sumo.dlr.de/xsd/net_file.xsd">

    <location netOffset="-285448.66,-5492398.13" convBoundary="7268.06,4716.19,8902.16,6015.02" origBoundary="6.030969,49.549099,6.216758,49.652578" projParameter="+proj=utm +zone=32 +ellps=WGS84 +datum=WGS84 +units=m +no_defs"/>

    <edge id=":-10132_0" function="internal">
        <lane id=":-10132_0_0" index="0" speed="13.89" length="9.05" shape="7989.59,5126.90 7988.71,5124.52 7987.29,5123.12 7985.35,5122.69 7982.88,5123.23"/>
    </edge>
    <edge id=":-10132_1" function="internal">
        <lane id=":-10132_1_0" index="0" speed="13.89" length="13.84" shape="7989.59,5126.90 7988.94,5123.37 7988.66,5120.02 7988.83,5116.68 7989.57,5113.21"/>
    </edge>
    <edge id=":-10132_2" function="internal">
        <lane id=":-10132_2_0" index="0" speed="13.89" length="12.28" shape="7992.64,5114.11 7991.91,5117.34 7991.76,5120.13 7992.06,5122.94 7992.72,5126.22"/>
    </edge>
    <edge id=":-10132_3" function="internal">
        <lane id=":-10132_3_0" index="0" speed="13.89" length="3.15" shape="7992.64,5114.11 7991.36,5116.98"/>
    </edge>
    <edge id=":-10132_6" function="internal">
        <lane id=":-10132_6_0" index="0" speed="13.89" length="10.70" shape="7991.36,5116.98 7989.30,5119.46 7986.47,5121.54 7982.88,5123.23"/>
    </edge>
    <edge id=":-10132_4" function="internal">
        <lane id=":-10132_4_0" index="0" speed="13.89" length="10.89" shape="7981.75,5120.23 7984.67,5118.89 7986.94,5117.27 7988.58,5115.37 7989.57,5113.21"/>
    </edge>
    <edge id=":-10132_5" function="internal">
        <lane id=":-10132_5_0" index="0" speed="13.89" length="14.78" shape="7981.75,5120.23 7985.80,5119.35 7988.97,5120.06 7991.28,5122.35 7992.72,5126.22"/>
    </edge>
    <edge id=":-10204_0" function="internal">
        <lane id=":-10204_0_0" index="0" speed="13.89" length="9.64" shape="7757.14,5047.48 7756.19,5044.58 7754.87,5043.40 7753.19,5043.95 7751.15,5046.22"/>
    </edge>
    <edge id=":-10204_1" function="internal">
        <lane id=":-10204_1_0" index="0" speed="13.89" length="26.52" shape="7757.14,5047.48 7754.98,5036.56 7753.56,5028.56 7752.90,5023.49 7752.98,5021.34"/>
        <lane id=":-10204_1_1" index="1" speed="13.89" length="24.68" shape="7757.14,5047.48 7755.48,5038.32 7754.68,5031.21 7754.73,5026.14 7755.64,5023.12"/>
    </edge>
    <edge id=":-10204_3" function="internal">
        <lane id=":-10204_3_0" index="0" speed="13.89" length="19.18" shape="7763.62,5028.46 7761.37,5032.66 7760.06,5037.12 7759.70,5041.85 7760.28,5046.84"/>
    </edge>
    <edge id=":-10204_4" function="internal">
        <lane id=":-10204_4_0" index="0" speed="13.89" length="21.61" shape="7763.62,5028.46 7751.15,5046.22"/>
        <lane id=":-10204_4_1" index="1" speed="13.89" length="21.61" shape="7760.96,5026.68 7748.54,5044.36"/>
        <lane id=":-10204_4_2" index="2" speed="13.89" length="21.61" shape="7758.30,5024.90 7745.93,5042.51"/>
    </edge>
    <edge id=":-10204_7" function="internal">
        <lane id=":-10204_7_0" index="0" speed="13.89" length="21.34" shape="7738.11,5036.95 7750.32,5019.56"/>
        <lane id=":-10204_7_1" index="1" speed="13.89" length="21.34" shape="7740.71,5038.80 7752.98,5021.34"/>
        <lane id=":-10204_7_2" index="2" speed="13.89" length="21.34" shape="7743.32,5040.66 7755.64,5023.12"/>
    </edge>
    <edge id=":-10204_10" function="internal">
        <lane id=":-10204_10_0" index="0" speed="13.89" length="2.64" shape="7743.32,5040.66 7745.38,5039.00"/>
    </edge>
    <edge id=":-10204_11" function="internal">
        <lane id=":-10204_11_0" index="0" speed="13.89" length="21.08" shape="7745.38,5039.00 7748.14,5036.79 7753.22,5037.00 7757.59,5040.58 7760.28,5046.84"/>
    </edge>
    <edge id=":-10284_0" function="internal">
        <lane id=":-10284_0_0" index="0" speed="13.89" length="11.28" shape="7928.13,4853.79 7925.20,4852.62 7923.06,4851.38 7920.91,4850.12 7917.99,4848.91"/>
    </edge>
    <edge id=":-10284_1" function="internal">
        <lane id=":-10284_1_0" index="0" speed="13.89" length="10.32" shape="7921.12,4857.46 7921.74,4854.36 7921.43,4851.91 7920.18,4850.09 7917.99,4848.91"/>
    </edge>
    <edge id=":-10284_2" function="internal">
        <lane id=":-10284_2_0" index="0" speed="13.89" length="11.68" shape="7921.12,4857.46 7922.62,4853.91 7924.44,4851.60 7926.59,4850.54 7929.07,4850.73"/>
    </edge>
    <edge id=":-10666_0" function="internal">
        <lane id=":-10666_0_0" index="0" speed="15.28" length="9.03" shape="8243.78,5457.38 8241.31,5457.14 8239.37,5457.76 8237.95,5459.22 8237.05,5461.53"/>
    </edge>
    <edge id=":-10666_1" function="internal">
        <lane id=":-10666_1_0" index="0" speed="16.67" length="14.35" shape="8243.78,5457.38 8229.84,5453.89"/>
        <lane id=":-10666_1_1" index="1" speed="16.67" length="14.35" shape="8244.53,5454.27 8230.64,5450.79"/>
    </edge>
    <edge id=":-10666_3" function="internal">
        <lane id=":-10666_3_0" index="0" speed="16.67" length="14.24" shape="8232.25,5444.60 8246.04,5448.05"/>
        <lane id=":-10666_3_1" index="1" speed="16.67" length="14.24" shape="8231.44,5447.69 8245.28,5451.16"/>
    </edge>
    <edge id=":-10666_5" function="internal">
        <lane id=":-10666_5_0" index="0" speed="15.28" length="3.55" shape="8231.44,5447.69 8234.64,5449.23"/>
    </edge>
    <edge id=":-10666_8" function="internal">
        <lane id=":-10666_8_0" index="0" speed="15.28" length="13.25" shape="8234.64,5449.23 8234.92,5449.37 8237.01,5452.23 8237.72,5456.28 8237.05,5461.53"/>
    </edge>
    <edge id=":-10666_6" function="internal">
        <lane id=":-10666_6_0" index="0" speed="15.28" length="9.11" shape="8233.94,5460.80 8234.16,5458.30 8233.55,5456.31 8232.11,5454.84 8229.84,5453.89"/>
    </edge>
    <edge id=":-10666_7" function="internal">
        <lane id=":-10666_7_0" index="0" speed="15.28" length="16.90" shape="8233.94,5460.80 8235.67,5455.80 8238.14,5452.53 8241.34,5450.98 8245.28,5451.16"/>
    </edge>
    <edge id=":-10750_0" function="internal">
        <lane id=":-10750_0_0" index="0" speed="13.89" length="14.69" shape="8538.08,5346.34 8523.50,5344.57"/>
    </edge>
    <edge id=":-10750_1" function="internal">
        <lane id=":-10750_1_0" index="0" speed="13.89" length="4.35" shape="8538.08,5346.34 8534.20,5345.42 8533.91,5345.20"/>
    </edge>
    <edge id=":-10750_6" function="internal">
        <lane id=":-10750_6_0" index="0" speed="13.89" length="10.09" shape="8533.91,5345.20 8531.63,5343.47 8530.36,5340.50 8530.41,5336.51"/>
    </edge>
    <edge id=":-10750_2" function="internal">
        <lane id=":-10750_2_0" index="0" speed="13.89" length="9.04" shape="8533.57,5337.00 8533.54,5339.50 8534.33,5341.36 8535.94,5342.58 8538.37,5343.16"/>
    </edge>
    <edge id=":-10750_3" function="internal">
        <lane id=":-10750_3_0" index="0" speed="13.89" length="14.36" shape="8533.57,5337.00 8532.42,5340.81 8530.36,5343.35 8527.38,5344.60 8523.50,5344.57"/>
    </edge>
    <edge id=":-10750_4" function="internal">
        <lane id=":-10750_4_0" index="0" speed="13.89" length="9.21" shape="8523.98,5341.41 8526.46,5341.42 8528.35,5340.61 8529.67,5338.97 8530.41,5336.51"/>
    </edge>
    <edge id=":-10750_5" function="internal">
        <lane id=":-10750_5_0" index="0" speed="13.89" length="14.50" shape="8523.98,5341.41 8538.37,5343.16"/>
    </edge>
    <edge id=":-10780_0" function="internal">
        <lane id=":-10780_0_0" index="0" speed="13.89" length="19.94" shape="8312.34,5853.97 8312.82,5859.92 8312.48,5864.08 8311.57,5868.23 8310.33,5874.14"/>
        <lane id=":-10780_0_1" index="1" speed="13.89" length="19.94" shape="8309.17,5854.39 8309.63,5860.08 8309.28,5864.01 8308.38,5867.92 8307.18,5873.58"/>
    </edge>
    <edge id=":-10780_2" function="internal">
        <lane id=":-10780_2_0" index="0" speed="13.89" length="2.73" shape="8309.17,5854.39 8308.65,5857.07"/>
    </edge>
    <edge id=":-10780_8" function="internal">
        <lane id=":-10780_8_0" index="0" speed="13.89" length="17.81" shape="8308.65,5857.07 8308.60,5857.33 8306.18,5860.76 8301.91,5864.69 8295.79,5869.11"/>
    </edge>
    <edge id=":-10780_3" function="internal">
        <lane id=":-10780_3_0" index="0" speed="13.89" length="14.87" shape="8294.02,5866.44 8298.12,5863.39 8300.95,5860.50 8302.52,5857.78 8302.82,5855.22"/>
    </edge>
    <edge id=":-10780_4" function="internal">
        <lane id=":-10780_4_0" index="0" speed="13.89" length="23.70" shape="8294.02,5866.44 8300.98,5862.82 8305.50,5862.80 8307.56,5866.39 8307.18,5873.58"/>
    </edge>
    <edge id=":-10780_5" function="internal">
        <lane id=":-10780_5_0" index="0" speed="13.89" length="9.67" shape="8300.88,5872.45 8301.07,5869.39 8300.29,5867.81 8298.53,5867.71 8295.79,5869.11"/>
    </edge>
    <edge id=":-10780_6" function="internal">
        <lane id=":-10780_6_0" index="0" speed="13.89" length="17.98" shape="8300.88,5872.45 8301.98,5867.37 8302.85,5863.86 8303.21,5860.34 8302.82,5855.22"/>
        <lane id=":-10780_6_1" index="1" speed="13.89" length="17.98" shape="8304.03,5873.01 8305.18,5867.64 8306.06,5863.93 8306.42,5860.21 8306.00,5854.80"/>
    </edge>
    <edge id=":-10854_0" function="internal">
        <lane id=":-10854_0_0" index="0" speed="13.89" length="11.09" shape="8193.63,4944.34 8182.58,4943.44"/>
    </edge>
    <edge id=":-10854_1" function="internal">
        <lane id=":-10854_1_0" index="0" speed="13.89" length="10.85" shape="8182.95,4940.26 8193.76,4941.14"/>
    </edge>
    <edge id=":-10854_2" function="internal">
        <lane id=":-10854_2_0" index="0" speed="13.89" length="9.04" shape="8187.27,4949.70 8187.34,4947.21 8186.57,4945.34 8184.99,4944.08 8182.58,4943.44"/>
    </edge>
    <edge id=":-10854_3" function="internal">
        <lane id=":-10854_3_0" index="0" speed="13.89" length="11.74" shape="8187.27,4949.70 8188.24,4945.88 8189.64,4943.18 8191.48,4941.60 8193.76,4941.14"/>
    </edge>
    <edge id=":-11162_0" function="internal">
        <lane id=":-11162_0_0" index="0" speed="15.28" length="9.79" shape="7733.32,5501.42 7734.47,5504.01 7736.04,5505.80 7738.00,5506.78 7740.38,5506.95"/>
        <lane id=":-11162_0_1" index="1" speed="15.28" length="14.17" shape="7730.27,5502.39 7731.92,5506.04 7734.21,5508.55 7737.12,5509.92 7740.66,5510.14"/>
    </edge>
    <edge id=":-11162_2" function="internal">
        <lane id=":-11162_2_0" index="0" speed="15.28" length="8.85" shape="7720.68,5511.31 7722.82,5510.20 7724.12,5508.66 7724.57,5506.71 7724.17,5504.32"/>
        <lane id=":-11162_2_1" index="1" speed="15.28" length="13.90" shape="7721.73,5514.33 7725.10,5512.58 7727.14,5510.17 7727.85,5507.10 7727.22,5503.35"/>
    </edge>
    <edge id=":-11162_4" function="internal">
        <lane id=":-11162_4_0" index="0" speed="13.89" length="19.07" shape="7722.79,5517.35 7728.07,5515.00 7731.54,5512.88 7735.10,5511.18 7740.66,5510.14"/>
        <lane id=":-11162_4_1" index="1" speed="13.89" length="19.07" shape="7722.79,5517.35 7728.03,5515.54 7731.69,5514.50 7735.44,5513.88 7740.95,5513.33"/>
    </edge>
    <edge id=":-1136_0" function="internal">
        <lane id=":-1136_0_0" index="0" speed="13.89" length="14.74" shape="8559.39,5691.62 8546.58,5684.33"/>
    </edge>
    <edge id=":-1136_1" function="internal">
        <lane id=":-1136_1_0" index="0" speed="13.89" length="3.56" shape="8559.39,5691.62 8556.74,5689.42 8556.69,5689.32"/>
    </edge>
    <edge id=":-1136_6" function="internal">
        <lane id=":-1136_6_0" index="0" speed="13.89" length="11.45" shape="8556.69,5689.32 8555.06,5686.48 8554.35,5682.80 8554.61,5678.38"/>
    </edge>
    <edge id=":-1136_2" function="internal">
        <lane id=":-1136_2_0" index="0" speed="13.89" length="11.17" shape="8557.77,5678.87 8557.54,5682.28 8558.01,5685.08 8559.16,5687.27 8561.01,5688.86"/>
    </edge>
    <edge id=":-1136_3" function="internal">
        <lane id=":-1136_3_0" index="0" speed="13.89" length="15.76" shape="8557.77,5678.87 8556.45,5683.25 8554.14,5685.62 8550.85,5685.98 8546.58,5684.33"/>
    </edge>
    <edge id=":-1136_4" function="internal">
        <lane id=":-1136_4_0" index="0" speed="13.89" length="9.11" shape="8548.14,5681.53 8550.61,5682.49 8552.51,5682.28 8553.84,5680.91 8554.61,5678.38"/>
    </edge>
    <edge id=":-1136_5" function="internal">
        <lane id=":-1136_5_0" index="0" speed="13.89" length="14.81" shape="8548.14,5681.53 8561.01,5688.86"/>
    </edge>
    <edge id=":-11420_0" function="internal">
        <lane id=":-11420_0_0" index="0" speed="13.89" length="6.87" shape="7783.94,5329.16 7783.17,5330.84 7782.76,5332.04 7782.57,5333.30 7782.46,5335.14"/>
        <lane id=":-11420_0_1" index="1" speed="13.89" length="6.87" shape="7781.05,5327.78 7780.13,5329.80 7779.63,5331.25 7779.40,5332.76 7779.26,5334.98"/>
    </edge>
    <edge id=":-11420_2" function="internal">
        <lane id=":-11420_2_0" index="0" speed="13.89" length="8.72" shape="7768.81,5330.06 7770.69,5329.85 7772.39,5328.94 7773.92,5327.33 7775.28,5325.02"/>
    </edge>
    <edge id=":-11420_3" function="internal">
        <lane id=":-11420_3_0" index="0" speed="13.89" length="12.50" shape="7768.81,5330.06 7773.46,5330.65 7776.76,5331.67 7778.69,5333.11 7779.26,5334.98"/>
    </edge>
    <edge id=":-11420_4" function="internal">
        <lane id=":-11420_4_0" index="0" speed="13.89" length="9.41" shape="7772.87,5334.65 7773.05,5331.69 7773.37,5329.66 7774.03,5327.72 7775.28,5325.02"/>
        <lane id=":-11420_4_1" index="1" speed="13.89" length="9.41" shape="7776.07,5334.82 7776.23,5332.22 7776.50,5330.45 7777.08,5328.76 7778.17,5326.40"/>
    </edge>
    <edge id=":-11432_0" function="internal">
        <lane id=":-11432_0_0" index="0" speed="13.89" length="14.59" shape="7848.44,5185.00 7834.12,5187.80"/>
    </edge>
    <edge id=":-11432_1" function="internal">
        <lane id=":-11432_1_0" index="0" speed="13.89" length="4.29" shape="7848.44,5185.00 7844.15,5185.23"/>
    </edge>
    <edge id=":-11432_6" function="internal">
        <lane id=":-11432_6_0" index="0" speed="13.89" length="10.84" shape="7844.15,5185.23 7841.14,5183.96 7839.39,5181.19 7838.91,5176.92"/>
    </edge>
    <edge id=":-11432_2" function="internal">
        <lane id=":-11432_2_0" index="0" speed="13.89" length="9.07" shape="7842.11,5177.02 7842.39,5179.58 7843.44,5181.24 7845.25,5182.00 7847.82,5181.86"/>
    </edge>
    <edge id=":-11432_3" function="internal">
        <lane id=":-11432_3_0" index="0" speed="13.89" length="14.64" shape="7842.11,5177.02 7841.50,5181.18 7839.97,5184.37 7837.51,5186.57 7834.12,5187.80"/>
    </edge>
    <edge id=":-11432_4" function="internal">
        <lane id=":-11432_4_0" index="0" speed="13.89" length="10.28" shape="7833.52,5184.66 7835.80,5183.80 7837.46,5182.23 7838.49,5179.93 7838.91,5176.92"/>
    </edge>
    <edge id=":-11432_5" function="internal">
        <lane id=":-11432_5_0" index="0" speed="13.89" length="14.57" shape="7833.52,5184.66 7847.82,5181.86"/>
    </edge>
    <edge id=":-11842_0" function="internal">
        <lane id=":-11842_0_0" index="0" speed="13.89" length="9.88" shape="7941.10,5016.68 7938.52,5026.18"/>
        <lane id=":-11842_0_1" index="1" speed="13.89" length="9.88" shape="7938.02,5015.81 7935.42,5025.39"/>
    </edge>
    <edge id=":-11842_2" function="internal">
        <lane id=":-11842_2_0" index="0" speed="13.89" length="2.26" shape="7938.02,5015.81 7936.79,5017.71"/>
    </edge>
    <edge id=":-11842_6" function="internal">
        <lane id=":-11842_6_0" index="0" speed="13.89" length="11.71" shape="7936.79,5017.71 7936.68,5017.87 7934.15,5018.80 7930.43,5018.59 7925.52,5017.24"/>
    </edge>
    <edge id=":-11842_3" function="internal">
        <lane id=":-11842_3_0" index="0" speed="13.89" length="8.43" shape="7929.22,5023.80 7929.45,5021.58 7928.91,5019.74 7927.60,5018.30 7925.52,5017.24"/>
    </edge>
    <edge id=":-11842_4" function="internal">
        <lane id=":-11842_4_0" index="0" speed="13.89" length="10.05" shape="7929.22,5023.80 7931.87,5014.06"/>
        <lane id=":-11842_4_1" index="1" speed="13.89" length="10.05" shape="7932.32,5024.59 7934.94,5014.93"/>
    </edge>
    <edge id=":-11876_0" function="internal">
        <lane id=":-11876_0_0" index="0" speed="13.89" length="9.03" shape="8118.13,5118.80 8115.65,5118.54 8113.71,5119.14 8112.30,5120.61 8111.42,5122.93"/>
    </edge>
    <edge id=":-11876_1" function="internal">
        <lane id=":-11876_1_0" index="0" speed="13.89" length="14.44" shape="8118.13,5118.80 8104.09,5115.43"/>
    </edge>
    <edge id=":-11876_2" function="internal">
        <lane id=":-11876_2_0" index="0" speed="13.89" length="14.51" shape="8104.80,5112.31 8118.91,5115.69"/>
    </edge>
    <edge id=":-11876_3" function="internal">
        <lane id=":-11876_3_0" index="0" speed="13.89" length="4.13" shape="8104.80,5112.31 8108.42,5113.71 8108.60,5113.88"/>
    </edge>
    <edge id=":-11876_6" function="internal">
        <lane id=":-11876_6_0" index="0" speed="13.89" length="10.12" shape="8108.60,5113.88 8110.74,5115.94 8111.74,5119.02 8111.42,5122.93"/>
    </edge>
    <edge id=":-11876_4" function="internal">
        <lane id=":-11876_4_0" index="0" speed="13.89" length="9.11" shape="8108.30,5122.23 8108.50,5119.72 8107.87,5117.75 8106.40,5116.32 8104.09,5115.43"/>
    </edge>
    <edge id=":-11876_5" function="internal">
        <lane id=":-11876_5_0" index="0" speed="13.89" length="14.29" shape="8108.30,5122.23 8109.69,5118.56 8111.92,5116.24 8115.00,5115.29 8118.91,5115.69"/>
    </edge>
    <edge id=":-12154_0" function="internal">
        <lane id=":-12154_0_0" index="0" speed="15.28" length="8.89" shape="7733.31,5576.09 7731.18,5576.49 7729.45,5577.54 7728.11,5579.24 7727.16,5581.60"/>
        <lane id=":-12154_0_1" index="1" speed="15.28" length="12.97" shape="7733.20,5572.89 7730.01,5573.46 7727.43,5574.96 7725.45,5577.39 7724.08,5580.73"/>
    </edge>
    <edge id=":-12154_2" function="internal">
        <lane id=":-12154_2_0" index="0" speed="13.89" length="16.83" shape="7733.10,5569.69 7727.94,5570.25 7724.32,5570.96 7720.82,5570.97 7716.07,5569.44"/>
        <lane id=":-12154_2_1" index="1" speed="13.89" length="16.83" shape="7733.10,5569.69 7728.29,5569.76 7724.98,5569.41 7721.79,5568.41 7717.36,5566.51"/>
    </edge>
    <edge id=":-12154_4" function="internal">
        <lane id=":-12154_4_0" index="0" speed="15.28" length="8.13" shape="7717.92,5579.01 7718.21,5576.84 7717.79,5575.01 7716.65,5573.52 7714.78,5572.37"/>
        <lane id=":-12154_4_1" index="1" speed="15.28" length="12.78" shape="7721.00,5579.87 7721.47,5576.46 7720.80,5573.59 7719.00,5571.25 7716.07,5569.44"/>
    </edge>
    <edge id=":-13248_0" function="internal">
        <lane id=":-13248_0_0" index="0" speed="13.89" length="14.19" shape="7950.38,5221.89 7938.13,5214.73"/>
    </edge>
    <edge id=":-13248_1" function="internal">
        <lane id=":-13248_1_0" index="0" speed="13.89" length="3.70" shape="7950.38,5221.89 7947.56,5219.50"/>
    </edge>
    <edge id=":-13248_6" function="internal">
        <lane id=":-13248_6_0" index="0" speed="13.89" length="10.57" shape="7947.56,5219.50 7946.06,5216.63 7945.89,5213.28 7947.04,5209.47"/>
    </edge>
    <edge id=":-13248_2" function="internal">
        <lane id=":-13248_2_0" index="0" speed="13.89" length="9.60" shape="7949.96,5210.77 7949.16,5213.38 7949.25,5215.65 7950.21,5217.58 7952.07,5219.17"/>
    </edge>
    <edge id=":-13248_3" function="internal">
        <lane id=":-13248_3_0" index="0" speed="13.89" length="14.52" shape="7949.96,5210.77 7947.81,5214.18 7945.12,5215.97 7941.89,5216.16 7938.13,5214.73"/>
    </edge>
    <edge id=":-13248_4" function="internal">
        <lane id=":-13248_4_0" index="0" speed="13.89" length="9.04" shape="7939.67,5211.93 7942.02,5212.82 7944.03,5212.70 7945.70,5211.59 7947.04,5209.47"/>
    </edge>
    <edge id=":-13248_5" function="internal">
        <lane id=":-13248_5_0" index="0" speed="13.89" length="14.35" shape="7939.67,5211.93 7952.07,5219.17"/>
    </edge>
    <edge id=":-13684_0" function="internal">
        <lane id=":-13684_0_0" index="0" speed="13.89" length="7.19" shape="7551.43,5394.61 7549.64,5395.25 7548.31,5396.30 7547.44,5397.75 7547.03,5399.61"/>
    </edge>
    <edge id=":-13684_1" function="internal">
        <lane id=":-13684_1_0" index="0" speed="13.89" length="7.30" shape="7544.40,5388.98 7545.63,5390.41 7547.10,5391.30 7548.81,5391.66 7550.76,5391.48"/>
    </edge>
    <edge id=":-13684_2" function="internal">
        <lane id=":-13684_2_0" index="0" speed="13.89" length="10.23" shape="7544.40,5388.98 7546.14,5391.81 7547.02,5393.97 7547.24,5396.29 7547.03,5399.61"/>
        <lane id=":-13684_2_1" index="1" speed="13.89" length="10.23" shape="7541.73,5390.74 7543.13,5393.02 7543.84,5394.77 7544.01,5396.65 7543.85,5399.34"/>
    </edge>
    <edge id=":-14174_0" function="internal">
        <lane id=":-14174_0_0" index="0" speed="13.89" length="7.68" shape="7822.29,5671.87 7821.30,5673.73 7819.96,5674.83 7818.26,5675.19 7816.20,5674.78"/>
    </edge>
    <edge id=":-14174_1" function="internal">
        <lane id=":-14174_1_0" index="0" speed="13.89" length="2.56" shape="7817.25,5671.76 7817.93,5671.89 7818.50,5671.78 7818.95,5671.41 7819.28,5670.79"/>
    </edge>
    <edge id=":-1502_0" function="internal">
        <lane id=":-1502_0_0" index="0" speed="13.89" length="9.48" shape="8551.94,5255.01 8549.47,5255.04 8547.56,5255.93 8546.23,5257.68 8545.48,5260.28"/>
    </edge>
    <edge id=":-1502_1" function="internal">
        <lane id=":-1502_1_0" index="0" speed="13.89" length="14.64" shape="8551.94,5255.01 8548.28,5254.55 8544.67,5254.23 8541.05,5254.04 8537.36,5253.97"/>
    </edge>
    <edge id=":-1502_2" function="internal">
        <lane id=":-1502_2_0" index="0" speed="13.89" length="15.07" shape="8537.37,5250.77 8541.13,5250.85 8544.90,5251.05 8548.66,5251.38 8552.40,5251.84"/>
    </edge>
    <edge id=":-1502_3" function="internal">
        <lane id=":-1502_3_0" index="0" speed="13.89" length="4.34" shape="8537.37,5250.77 8541.47,5251.38 8541.64,5251.50"/>
    </edge>
    <edge id=":-1502_6" function="internal">
        <lane id=":-1502_6_0" index="0" speed="13.89" length="10.45" shape="8541.64,5251.50 8544.19,5253.17 8545.52,5256.14 8545.48,5260.28"/>
    </edge>
    <edge id=":-1502_4" function="internal">
        <lane id=":-1502_4_0" index="0" speed="13.89" length="9.05" shape="8542.32,5259.79 8542.34,5257.26 8541.52,5255.44 8539.86,5254.35 8537.36,5253.97"/>
    </edge>
    <edge id=":-1502_5" function="internal">
        <lane id=":-1502_5_0" index="0" speed="13.89" length="14.60" shape="8542.32,5259.79 8543.48,5255.85 8545.55,5253.21 8548.52,5251.87 8552.40,5251.84"/>
    </edge>
    <edge id=":-15034_0" function="internal">
        <lane id=":-15034_0_0" index="0" speed="13.89" length="15.75" shape="8592.44,5526.22 8588.06,5526.31 8584.71,5527.71 8582.40,5530.40 8581.12,5534.40"/>
    </edge>
    <edge id=":-15034_1" function="internal">
        <lane id=":-15034_1_0" index="0" speed="15.28" length="19.74" shape="8592.44,5526.22 8588.65,5525.78 8584.43,5525.36 8579.30,5525.01 8572.76,5524.80"/>
    </edge>
    <edge id=":-15034_2" function="internal">
        <lane id=":-15034_2_0" index="0" speed="15.28" length="18.32" shape="8592.44,5526.22 8586.84,5524.92 8583.38,5522.52 8582.07,5519.04 8582.90,5514.46"/>
    </edge>
    <edge id=":-15034_3" function="internal">
        <lane id=":-15034_3_0" index="0" speed="15.28" length="9.07" shape="8588.90,5516.69 8588.36,5519.21 8588.82,5521.11 8590.31,5522.39 8592.80,5523.04"/>
    </edge>
    <edge id=":-15034_4" function="internal">
        <lane id=":-15034_4_0" index="0" speed="15.28" length="19.38" shape="8588.90,5516.69 8586.38,5522.59 8584.05,5527.09 8582.20,5530.82 8581.12,5534.40"/>
    </edge>
    <edge id=":-15034_5" function="internal">
        <lane id=":-15034_5_0" index="0" speed="16.67" length="17.24" shape="8585.90,5515.58 8583.77,5519.67 8580.87,5522.57 8577.20,5524.28 8572.76,5524.80"/>
    </edge>
    <edge id=":-15034_6" function="internal">
        <lane id=":-15034_6_0" index="0" speed="16.67" length="9.31" shape="8572.86,5518.40 8575.23,5518.12 8577.19,5517.18 8578.75,5515.59 8579.90,5513.35"/>
    </edge>
    <edge id=":-15034_7" function="internal">
        <lane id=":-15034_7_0" index="0" speed="15.28" length="20.05" shape="8572.81,5521.60 8579.45,5521.82 8584.69,5522.17 8588.99,5522.60 8592.80,5523.04"/>
    </edge>
    <edge id=":-15034_8" function="internal">
        <lane id=":-15034_8_0" index="0" speed="15.28" length="2.35" shape="8572.81,5521.60 8575.12,5522.05"/>
    </edge>
    <edge id=":-15034_12" function="internal">
        <lane id=":-15034_12_0" index="0" speed="15.28" length="15.61" shape="8575.12,5522.05 8577.22,5522.46 8580.08,5524.88 8581.37,5528.86 8581.12,5534.40"/>
    </edge>
    <edge id=":-15034_9" function="internal">
        <lane id=":-15034_9_0" index="0" speed="15.28" length="9.32" shape="8577.96,5533.88 8577.99,5531.34 8577.12,5529.52 8575.36,5528.41 8572.71,5528.00"/>
    </edge>
    <edge id=":-15034_10" function="internal">
        <lane id=":-15034_10_0" index="0" speed="15.28" length="20.08" shape="8577.96,5533.88 8578.58,5530.08 8579.43,5525.83 8580.77,5520.76 8582.90,5514.46"/>
    </edge>
    <edge id=":-15034_11" function="internal">
        <lane id=":-15034_11_0" index="0" speed="13.89" length="20.73" shape="8577.96,5533.88 8579.64,5528.59 8582.68,5525.02 8587.06,5523.17 8592.80,5523.04"/>
    </edge>
    <edge id=":-15120_0" function="internal">
        <lane id=":-15120_0_0" index="0" speed="13.89" length="11.09" shape="8424.47,5405.69 8421.65,5405.53 8419.30,5406.37 8417.43,5408.20 8416.04,5411.02"/>
    </edge>
    <edge id=":-15120_1" function="internal">
        <lane id=":-15120_1_0" index="0" speed="13.89" length="21.77" shape="8424.47,5405.69 8403.18,5401.19"/>
    </edge>
    <edge id=":-15120_2" function="internal">
        <lane id=":-15120_2_0" index="0" speed="13.89" length="17.67" shape="8424.47,5405.69 8419.23,5403.94 8415.98,5401.35 8414.71,5397.92 8415.43,5393.65"/>
    </edge>
    <edge id=":-15120_3" function="internal">
        <lane id=":-15120_3_0" index="0" speed="13.89" length="9.05" shape="8421.44,5395.86 8420.92,5398.33 8421.36,5400.28 8422.77,5401.69 8425.15,5402.57"/>
    </edge>
    <edge id=":-15120_4" function="internal">
        <lane id=":-15120_4_0" index="0" speed="13.89" length="16.13" shape="8421.44,5395.86 8416.04,5411.02"/>
        <lane id=":-15120_4_1" index="1" speed="13.89" length="16.13" shape="8418.44,5394.76 8413.01,5409.97"/>
    </edge>
    <edge id=":-15120_6" function="internal">
        <lane id=":-15120_6_0" index="0" speed="13.89" length="3.91" shape="8418.44,5394.76 8416.48,5398.13"/>
    </edge>
    <edge id=":-15120_14" function="internal">
        <lane id=":-15120_14_0" index="0" speed="13.89" length="14.37" shape="8416.48,5398.13 8416.26,5398.51 8412.99,5400.83 8408.63,5401.72 8403.18,5401.19"/>
    </edge>
    <edge id=":-15120_7" function="internal">
        <lane id=":-15120_7_0" index="0" speed="13.89" length="11.29" shape="8403.83,5398.06 8406.66,5398.19 8409.04,5397.32 8410.96,5395.44 8412.43,5392.55"/>
    </edge>
    <edge id=":-15120_8" function="internal">
        <lane id=":-15120_8_0" index="0" speed="13.89" length="21.79" shape="8403.83,5398.06 8425.15,5402.57"/>
    </edge>
    <edge id=":-15120_9" function="internal">
        <lane id=":-15120_9_0" index="0" speed="13.89" length="17.60" shape="8403.83,5398.06 8409.06,5399.77 8412.33,5402.33 8413.65,5405.73 8413.01,5409.97"/>
    </edge>
    <edge id=":-15120_10" function="internal">
        <lane id=":-15120_10_0" index="0" speed="13.89" length="9.05" shape="8406.97,5407.87 8407.44,5405.40 8406.97,5403.45 8405.55,5402.05 8403.18,5401.19"/>
    </edge>
    <edge id=":-15120_11" function="internal">
        <lane id=":-15120_11_0" index="0" speed="13.89" length="16.24" shape="8406.97,5407.87 8412.43,5392.55"/>
        <lane id=":-15120_11_1" index="1" speed="13.89" length="16.24" shape="8409.99,5408.92 8415.43,5393.65"/>
    </edge>
    <edge id=":-15120_13" function="internal">
        <lane id=":-15120_13_0" index="0" speed="13.89" length="4.14" shape="8409.99,5408.92 8412.02,5405.32"/>
    </edge>
    <edge id=":-15120_15" function="internal">
        <lane id=":-15120_15_0" index="0" speed="13.89" length="14.07" shape="8412.02,5405.32 8412.10,5405.17 8415.33,5402.86 8419.68,5401.99 8425.15,5402.57"/>
    </edge>
    <edge id=":-15636_0" function="internal">
        <lane id=":-15636_0_0" index="0" speed="13.89" length="0.35" shape="7790.13,4770.29 7789.81,4770.16"/>
    </edge>
    <edge id=":-15636_1" function="internal">
        <lane id=":-15636_1_0" index="0" speed="13.89" length="0.12" shape="7791.08,4767.23 7791.19,4767.27"/>
    </edge>
    <edge id=":-15912_0" function="internal">