<?xml version="1.0" encoding="UTF-8"?>

<!-- generated on 2022-04-12 17:47:58 by Eclipse SUMO netconvert Version 1.12.0
<configuration xmlns:xsi="http://www.w3.org/2001/XMLSchema-instance" xsi:noNamespaceSchemaLocation="http://sumo.dlr.de/xsd/netconvertConfiguration.xsd">

    <input>
        <osm-files value="/home/svadlmat/UTC/Project/Maps/osm/filtered/New_York_filtered.osm"/>
    </input>

    <output>
        <output-file value="/home/svadlmat/UTC/Project/Maps/sumo/New_York.net.xml"/>
    </output>

    <projection>
        <proj.utm value="true"/>
    </projection>

    <processing>
        <numerical-ids.node-start value="0"/>
        <numerical-ids.edge-start value="0"/>
        <geometry.remove value="true"/>
        <roundabouts.guess value="true"/>
    </processing>

    <ramp_guessing>
        <ramps.guess value="true"/>
    </ramp_guessing>

    <edge_removal>
        <keep-edges value="1"/>
        <remove-edges.isolated value="true"/>
    </edge_removal>

    <junctions>
        <junctions.join value="true"/>
    </junctions>

    <report>
        <aggregate-warnings value="5"/>
    </report>

</configuration>
-->

<net version="1.9" junctionCornerDetail="5" limitTurnSpeed="5.50" xmlns:xsi="http://www.w3.org/2001/XMLSchema-instance" xsi:noNamespaceSchemaLocation="http://sumo.dlr.de/xsd/net_file.xsd">

    <location netOffset="-592248.66,-4518516.84" convBoundary="0.00,0.00,1942.05,3310.50" origBoundary="-73.905849,40.812476,-73.882837,40.842190" projParameter="+proj=utm +zone=18 +ellps=WGS84 +datum=WGS84 +units=m +no_defs"/>

    <type id="highway.bridleway" priority="1" numLanes="1" speed="2.78" allow="pedestrian" oneway="1" width="2.00"/>
    <type id="highway.bus_guideway" priority="1" numLanes="1" speed="27.78" allow="bus" oneway="1"/>
    <type id="highway.cycleway" priority="1" numLanes="1" speed="8.33" allow="bicycle" oneway="0" width="1.00"/>
    <type id="highway.footway" priority="1" numLanes="1" speed="2.78" allow="pedestrian" oneway="1" width="2.00"/>
    <type id="highway.ford" priority="1" numLanes="1" speed="2.78" allow="army" oneway="0"/>
    <type id="highway.living_street" priority="2" numLanes="1" speed="2.78" disallow="tram rail_urban rail rail_electric rail_fast ship" oneway="0"/>
    <type id="highway.motorway" priority="14" numLanes="2" speed="39.44" allow="private emergency authority army vip passenger hov taxi bus coach delivery truck trailer motorcycle evehicle custom1 custom2" oneway="1"/>
    <type id="highway.motorway_link" priority="9" numLanes="1" speed="22.22" allow="private emergency authority army vip passenger hov taxi bus coach delivery truck trailer motorcycle evehicle custom1 custom2" oneway="1"/>
    <type id="highway.path" priority="1" numLanes="1" speed="2.78" allow="pedestrian bicycle" oneway="0" width="2.00"/>
    <type id="highway.pedestrian" priority="1" numLanes="1" speed="2.78" allow="pedestrian" oneway="1" width="2.00"/>
    <type id="highway.primary" priority="12" numLanes="2" speed="27.78" disallow="tram rail_urban rail rail_electric rail_fast ship" oneway="0"/>
    <type id="highway.primary_link" priority="7" numLanes="1" speed="22.22" disallow="tram rail_urban rail rail_electric rail_fast ship" oneway="0"/>
    <type id="highway.raceway" priority="15" numLanes="2" speed="83.33" allow="vip" oneway="0"/>
    <type id="highway.residential" priority="3" numLanes="1" speed="13.89" disallow="tram rail_urban rail rail_electric rail_fast ship" oneway="0"/>
    <type id="highway.secondary" priority="11" numLanes="1" speed="27.78" disallow="tram rail_urban rail rail_electric rail_fast ship" oneway="0"/>
    <type id="highway.secondary_link" priority="6" numLanes="1" speed="22.22" disallow="tram rail_urban rail rail_electric rail_fast ship" oneway="0"/>
    <type id="highway.service" priority="1" numLanes="1" speed="5.56" allow="pedestrian delivery bicycle" oneway="0"/>
    <type id="highway.stairs" priority="1" numLanes="1" speed="1.39" allow="pedestrian" oneway="1" width="2.00"/>
    <type id="highway.step" priority="1" numLanes="1" speed="1.39" allow="pedestrian" oneway="1" width="2.00"/>
    <type id="highway.steps" priority="1" numLanes="1" speed="1.39" allow="pedestrian" oneway="1" width="2.00"/>
    <type id="highway.tertiary" priority="10" numLanes="1" speed="22.22" disallow="tram rail_urban rail rail_electric rail_fast ship" oneway="0"/>
    <type id="highway.tertiary_link" priority="5" numLanes="1" speed="22.22" disallow="tram rail_urban rail rail_electric rail_fast ship" oneway="0"/>
    <type id="highway.track" priority="1" numLanes="1" speed="5.56" allow="pedestrian motorcycle moped bicycle" oneway="0"/>
    <type id="highway.trunk" priority="13" numLanes="2" speed="27.78" disallow="pedestrian bicycle tram rail_urban rail rail_electric rail_fast ship" oneway="0"/>
    <type id="highway.trunk_link" priority="8" numLanes="1" speed="22.22" disallow="pedestrian bicycle tram rail_urban rail rail_electric rail_fast ship" oneway="0"/>
    <type id="highway.unclassified" priority="4" numLanes="1" speed="13.89" disallow="tram rail_urban rail rail_electric rail_fast ship" oneway="0"/>
    <type id="highway.unsurfaced" priority="1" numLanes="1" speed="8.33" disallow="tram rail_urban rail rail_electric rail_fast ship" oneway="0"/>
    <type id="railway.highspeed" priority="21" numLanes="1" speed="69.44" allow="rail_fast" oneway="1"/>
    <type id="railway.light_rail" priority="19" numLanes="1" speed="27.78" allow="rail_urban" oneway="1"/>
    <type id="railway.preserved" priority="16" numLanes="1" speed="27.78" allow="rail" oneway="1"/>
    <type id="railway.rail" priority="20" numLanes="1" speed="44.44" allow="rail" oneway="1"/>
    <type id="railway.subway" priority="18" numLanes="1" speed="27.78" allow="rail_urban" oneway="1"/>
    <type id="railway.tram" priority="17" numLanes="1" speed="13.89" allow="tram" oneway="1"/>

    <edge id=":10_0" function="internal">
        <lane id=":10_0_0" index="0" disallow="tram rail_urban rail rail_electric rail_fast ship" speed="13.89" length="8.84" shape="605.53,1462.46 605.58,1471.30"/>
    </edge>
    <edge id=":10_1" function="internal">
        <lane id=":10_1_0" index="0" disallow="tram rail_urban rail rail_electric rail_fast ship" speed="7.15" length="7.84" shape="605.53,1462.46 605.24,1464.23 604.37,1465.77 602.91,1467.08 600.86,1468.16"/>
    </edge>
    <edge id=":101_0" function="internal">
        <lane id=":101_0_0" index="0" disallow="tram rail_urban rail rail_electric rail_fast ship" speed="13.89" length="0.10" shape="777.01,1079.38 777.01,1079.38"/>
    </edge>
    <edge id=":101_1" function="internal">
        <lane id=":101_1_0" index="0" disallow="tram rail_urban rail rail_electric rail_fast ship" speed="13.89" length="0.10" shape="773.81,1079.37 773.81,1079.37"/>
    </edge>
    <edge id=":102_0" function="internal">
        <lane id=":102_0_0" index="0" disallow="tram rail_urban rail rail_electric rail_fast ship" speed="13.89" length="0.30" shape="776.03,1271.30 776.03,1271.59"/>
    </edge>
    <edge id=":102_1" function="internal">
        <lane id=":102_1_0" index="0" disallow="tram rail_urban rail rail_electric rail_fast ship" speed="13.89" length="0.30" shape="772.83,1271.58 772.83,1271.28"/>
    </edge>
    <edge id=":103_0" function="internal">
        <lane id=":103_0_0" index="0" disallow="tram rail_urban rail rail_electric rail_fast ship" speed="6.26" length="9.05" shape="772.47,1517.09 771.86,1514.65 770.61,1513.08 768.73,1512.40 766.21,1512.61"/>
    </edge>
    <edge id=":103_1" function="internal">
        <lane id=":103_1_0" index="0" disallow="tram rail_urban rail rail_electric rail_fast ship" speed="13.89" length="14.93" shape="772.47,1517.09 772.13,1513.37 771.90,1509.65 771.76,1505.93 771.72,1502.19"/>
    </edge>
    <edge id=":103_2" function="internal">
        <lane id=":103_2_0" index="0" disallow="tram rail_urban rail rail_electric rail_fast ship" speed="7.80" length="4.29" shape="772.47,1517.09 772.64,1513.00 772.72,1512.83"/>
    </edge>
    <edge id=":103_3" function="internal">
        <lane id=":103_3_0" index="0" disallow="tram rail_urban rail rail_electric rail_fast ship" speed="3.65" length="1.44" shape="772.47,1517.09 773.14,1515.82"/>
    </edge>
    <edge id=":103_16" function="internal">
        <lane id=":103_16_0" index="0" disallow="tram rail_urban rail rail_electric rail_fast ship" speed="7.80" length="10.39" shape="772.72,1512.83 774.10,1510.11 776.86,1508.40 780.92,1507.89"/>
    </edge>
    <edge id=":103_17" function="internal">
        <lane id=":103_17_0" index="0" disallow="tram rail_urban rail rail_electric rail_fast ship" speed="3.65" length="3.23" shape="773.14,1515.82 773.90,1515.34 774.73,1515.66 775.65,1516.77"/>
    </edge>
    <edge id=":103_4" function="internal">
        <lane id=":103_4_0" index="0" disallow="tram rail_urban rail rail_electric rail_fast ship" speed="6.27" length="9.05" shape="780.86,1511.09 778.36,1511.40 776.66,1512.46 775.76,1514.25 775.65,1516.77"/>
    </edge>
    <edge id=":103_5" function="internal">
        <lane id=":103_5_0" index="0" disallow="tram rail_urban rail rail_electric rail_fast ship" speed="13.89" length="14.76" shape="780.86,1511.09 777.15,1511.13 773.49,1511.40 769.86,1511.89 766.21,1512.61"/>
    </edge>
    <edge id=":103_6" function="internal">
        <lane id=":103_6_0" index="0" disallow="tram rail_urban rail rail_electric rail_fast ship" speed="8.12" length="4.06" shape="780.86,1511.09 776.85,1510.47"/>
    </edge>
    <edge id=":103_7" function="internal">
        <lane id=":103_7_0" index="0" disallow="tram rail_urban rail rail_electric rail_fast ship" speed="3.65" length="1.44" shape="780.86,1511.09 779.68,1510.27"/>
    </edge>
    <edge id=":103_18" function="internal">
        <lane id=":103_18_0" index="0" disallow="tram rail_urban rail rail_electric rail_fast ship" speed="8.12" length="10.44" shape="776.85,1510.47 773.99,1508.78 772.28,1506.02 771.72,1502.19"/>
    </edge>
    <edge id=":103_19" function="internal">
        <lane id=":103_19_0" index="0" disallow="tram rail_urban rail rail_electric rail_fast ship" speed="3.65" length="3.23" shape="779.68,1510.27 779.29,1509.46 779.71,1508.67 780.92,1507.89"/>
    </edge>
    <edge id=":103_8" function="internal">
        <lane id=":103_8_0" index="0" disallow="tram rail_urban rail rail_electric rail_fast ship" speed="6.65" length="9.40" shape="774.92,1502.20 775.29,1504.65 776.41,1506.41 778.29,1507.49 780.92,1507.89"/>
    </edge>
    <edge id=":103_9" function="internal">
        <lane id=":103_9_0" index="0" disallow="tram rail_urban rail rail_electric rail_fast ship" speed="13.89" length="14.59" shape="774.92,1502.20 774.95,1505.89 775.09,1509.50 775.32,1513.10 775.65,1516.77"/>
    </edge>
    <edge id=":103_10" function="internal">
        <lane id=":103_10_0" index="0" disallow="tram rail_urban rail rail_electric rail_fast ship" speed="8.93" length="3.97" shape="774.92,1502.20 774.36,1506.01 774.30,1506.12"/>
    </edge>
    <edge id=":103_11" function="internal">
        <lane id=":103_11_0" index="0" disallow="tram rail_urban rail rail_electric rail_fast ship" speed="3.65" length="1.44" shape="774.92,1502.20 774.12,1503.40"/>
    </edge>
    <edge id=":103_20" function="internal">
        <lane id=":103_20_0" index="0" disallow="tram rail_urban rail rail_electric rail_fast ship" speed="8.93" length="10.83" shape="774.30,1506.12 772.72,1509.02 770.01,1511.22 766.21,1512.61"/>
    </edge>
    <edge id=":103_21" function="internal">
        <lane id=":103_21_0" index="0" disallow="tram rail_urban rail rail_electric rail_fast ship" speed="3.65" length="3.23" shape="774.12,1503.40 773.31,1503.79 772.52,1503.39 771.72,1502.19"/>
    </edge>
    <edge id=":103_12" function="internal">
        <lane id=":103_12_0" index="0" disallow="tram rail_urban rail rail_electric rail_fast ship" speed="7.60" length="10.46" shape="765.50,1509.49 768.21,1508.50 770.15,1506.96 771.32,1504.85 771.72,1502.19"/>
    </edge>
    <edge id=":103_13" function="internal">
        <lane id=":103_13_0" index="0" disallow="tram rail_urban rail rail_electric rail_fast ship" speed="13.89" length="15.53" shape="765.50,1509.49 769.27,1508.76 773.17,1508.24 777.09,1507.94 780.92,1507.89"/>
    </edge>
    <edge id=":103_14" function="internal">
        <lane id=":103_14_0" index="0" disallow="tram rail_urban rail rail_electric rail_fast ship" speed="7.80" length="4.45" shape="765.50,1509.49 769.58,1509.16 769.92,1509.28"/>
    </edge>
    <edge id=":103_15" function="internal">
        <lane id=":103_15_0" index="0" disallow="tram rail_urban rail rail_electric rail_fast ship" speed="3.65" length="1.44" shape="765.50,1509.49 766.85,1510.00"/>
    </edge>
    <edge id=":103_22" function="internal">
        <lane id=":103_22_0" index="0" disallow="tram rail_urban rail rail_electric rail_fast ship" speed="7.80" length="10.23" shape="769.92,1509.28 772.64,1510.26 774.66,1512.80 775.65,1516.77"/>
    </edge>
    <edge id=":103_23" function="internal">
        <lane id=":103_23_0" index="0" disallow="tram rail_urban rail rail_electric rail_fast ship" speed="3.65" length="3.23" shape="766.85,1510.00 767.42,1510.69 767.21,1511.56 766.21,1512.61"/>
    </edge>
    <edge id=":104_0" function="internal">
        <lane id=":104_0_0" index="0" disallow="tram rail_urban rail rail_electric rail_fast ship" speed="13.89" length="15.96" shape="781.40,1589.47 779.39,1586.16 777.80,1582.40 776.34,1578.57 774.69,1575.02"/>
    </edge>
    <edge id=":104_1" function="internal">
        <lane id=":104_1_0" index="0" disallow="tram rail_urban rail rail_electric rail_fast ship" speed="13.89" length="16.08" shape="781.40,1589.47 779.68,1586.07 778.86,1582.07 778.53,1577.87 778.26,1573.90"/>
    </edge>
    <edge id=":104_2" function="internal">
        <lane id=":104_2_0" index="0" disallow="tram rail_urban rail rail_electric rail_fast ship" speed="3.65" length="1.44" shape="781.40,1589.47 781.29,1588.03"/>
    </edge>
    <edge id=":104_6" function="internal">
        <lane id=":104_6_0" index="0" disallow="tram rail_urban rail rail_electric rail_fast ship" speed="3.65" length="3.23" shape="781.29,1588.03 781.67,1587.22 782.55,1587.04 783.92,1587.49"/>
    </edge>
    <edge id=":104_3" function="internal">
        <lane id=":104_3_0" index="0" disallow="tram rail_urban rail rail_electric rail_fast ship" speed="13.89" length="14.37" shape="781.44,1573.57 781.61,1577.29 781.71,1580.92 782.30,1584.36 783.92,1587.49"/>
    </edge>
    <edge id=":104_4" function="internal">
        <lane id=":104_4_0" index="0" disallow="tram rail_urban rail rail_electric rail_fast ship" speed="6.72" length="7.04" shape="781.44,1573.57 781.65,1579.85 781.34,1580.54"/>
    </edge>
    <edge id=":104_5" function="internal">
        <lane id=":104_5_0" index="0" disallow="tram rail_urban rail rail_electric rail_fast ship" speed="3.65" length="1.44" shape="781.44,1573.57 780.77,1574.85"/>
    </edge>
    <edge id=":104_7" function="internal">
        <lane id=":104_7_0" index="0" disallow="tram rail_urban rail rail_electric rail_fast ship" speed="6.72" length="11.24" shape="781.34,1580.54 780.60,1582.19 778.28,1580.58 774.69,1575.02"/>
    </edge>
    <edge id=":104_8" function="internal">
        <lane id=":104_8_0" index="0" disallow="tram rail_urban rail rail_electric rail_fast ship" speed="3.65" length="3.23" shape="780.77,1574.85 780.01,1575.33 779.18,1575.01 778.26,1573.90"/>
    </edge>
    <edge id=":105_0" function="internal">
        <lane id=":105_0_0" index="0" disallow="tram rail_urban rail rail_electric rail_fast ship" speed="13.89" length="8.13" shape="823.47,1643.41 818.55,1636.94"/>
    </edge>
    <edge id=":105_1" function="internal">
        <lane id=":105_1_0" index="0" disallow="tram rail_urban rail rail_electric rail_fast ship" speed="3.65" length="1.44" shape="823.47,1643.41 823.44,1641.97"/>
    </edge>
    <edge id=":105_6" function="internal">
        <lane id=":105_6_0" index="0" disallow="tram rail_urban rail rail_electric rail_fast ship" speed="3.65" length="3.23" shape="823.44,1641.97 823.87,1641.18 824.75,1641.05 826.10,1641.58"/>
    </edge>
    <edge id=":105_2" function="internal">
        <lane id=":105_2_0" index="0" disallow="tram rail_urban rail rail_electric rail_fast ship" speed="8.61" length="7.76" shape="825.51,1634.07 825.06,1636.34 825.01,1638.35 825.35,1640.09 826.10,1641.58"/>
    </edge>
    <edge id=":105_3" function="internal">
        <lane id=":105_3_0" index="0" disallow="tram rail_urban rail rail_electric rail_fast ship" speed="5.91" length="10.84" shape="825.51,1634.07 824.19,1637.53 822.59,1639.16 820.71,1638.97 818.55,1636.94"/>
    </edge>
    <edge id=":105_4" function="internal">
        <lane id=":105_4_0" index="0" disallow="tram rail_urban rail rail_electric rail_fast ship" speed="13.89" length="8.30" shape="821.07,1634.97 826.10,1641.58"/>
    </edge>
    <edge id=":105_5" function="internal">
        <lane id=":105_5_0" index="0" disallow="tram rail_urban rail rail_electric rail_fast ship" speed="3.65" length="1.44" shape="821.07,1634.97 821.18,1636.41"/>
    </edge>
    <edge id=":105_7" function="internal">
        <lane id=":105_7_0" index="0" disallow="tram rail_urban rail rail_electric rail_fast ship" speed="3.65" length="3.23" shape="821.18,1636.41 820.79,1637.22 819.92,1637.40 818.55,1636.94"/>
    </edge>
    <edge id=":106_0" function="internal">
        <lane id=":106_0_0" index="0" disallow="tram rail_urban rail rail_electric rail_fast ship" speed="6.34" length="9.04" shape="902.10,1757.72 900.48,1755.81 898.67,1754.93 896.66,1755.09 894.46,1756.28"/>
    </edge>
    <edge id=":106_1" function="internal">
        <lane id=":106_1_0" index="0" disallow="tram rail_urban rail rail_electric rail_fast ship" speed="13.89" length="14.95" shape="902.10,1757.72 894.05,1745.12"/>
    </edge>
    <edge id=":106_2" function="internal">
        <lane id=":106_2_0" index="0" disallow="tram rail_urban rail rail_electric rail_fast ship" speed="8.52" length="4.11" shape="902.10,1757.72 900.47,1754.07 900.47,1753.96"/>
    </edge>
    <edge id=":106_3" function="internal">
        <lane id=":106_3_0" index="0" disallow="tram rail_urban rail rail_electric rail_fast ship" speed="3.65" length="1.44" shape="902.10,1757.72 902.14,1756.28"/>
    </edge>
    <edge id=":106_16" function="internal">
        <lane id=":106_16_0" index="0" disallow="tram rail_urban rail rail_electric rail_fast ship" speed="8.52" length="10.71" shape="900.47,1753.96 900.31,1750.67 901.61,1747.52 904.38,1744.61"/>
    </edge>
    <edge id=":106_17" function="internal">
        <lane id=":106_17_0" index="0" disallow="tram rail_urban rail rail_electric rail_fast ship" speed="3.65" length="3.23" shape="902.14,1756.28 902.61,1755.52 903.50,1755.43 904.81,1756.02"/>
    </edge>
    <edge id=":106_4" function="internal">
        <lane id=":106_4_0" index="0" disallow="tram rail_urban rail rail_electric rail_fast ship" speed="7.12" length="10.07" shape="906.37,1747.12 904.49,1749.09 903.60,1751.24 903.71,1753.55 904.81,1756.02"/>
    </edge>
    <edge id=":106_5" function="internal">
        <lane id=":106_5_0" index="0" disallow="tram rail_urban rail rail_electric rail_fast ship" speed="22.22" length="15.03" shape="906.37,1747.12 894.46,1756.28"/>
    </edge>
    <edge id=":106_6" function="internal">
        <lane id=":106_6_0" index="0" disallow="tram rail_urban rail rail_electric rail_fast ship" speed="7.84" length="4.27" shape="906.37,1747.12 902.88,1749.16 902.66,1749.18"/>
    </edge>
    <edge id=":106_7" function="internal">
        <lane id=":106_7_0" index="0" disallow="tram rail_urban rail rail_electric rail_fast ship" speed="3.65" length="1.44" shape="906.37,1747.12 904.94,1747.24"/>
    </edge>
    <edge id=":106_18" function="internal">
        <lane id=":106_18_0" index="0" disallow="tram rail_urban rail rail_electric rail_fast ship" speed="7.84" length="10.29" shape="902.66,1749.18 899.66,1749.50 896.72,1748.16 894.05,1745.12"/>
    </edge>
    <edge id=":106_19" function="internal">
        <lane id=":106_19_0" index="0" disallow="tram rail_urban rail rail_electric rail_fast ship" speed="3.65" length="3.23" shape="904.94,1747.24 904.12,1746.86 903.94,1745.99 904.38,1744.61"/>
    </edge>
    <edge id=":106_8" function="internal">
        <lane id=":106_8_0" index="0" disallow="tram rail_urban rail rail_electric rail_fast ship" speed="6.31" length="9.04" shape="896.73,1743.37 898.39,1745.26 900.22,1746.09 902.21,1745.88 904.38,1744.61"/>
    </edge>
    <edge id=":106_9" function="internal">
        <lane id=":106_9_0" index="0" disallow="tram rail_urban rail rail_electric rail_fast ship" speed="13.89" length="15.01" shape="896.73,1743.37 904.81,1756.02"/>
    </edge>
    <edge id=":106_10" function="internal">
        <lane id=":106_10_0" index="0" disallow="tram rail_urban rail rail_electric rail_fast ship" speed="8.33" length="4.27" shape="896.73,1743.37 898.43,1747.01 898.45,1747.26"/>
    </edge>
    <edge id=":106_11" function="internal">
        <lane id=":106_11_0" index="0" disallow="tram rail_urban rail rail_electric rail_fast ship" speed="3.65" length="1.44" shape="896.73,1743.37 896.71,1744.81"/>
    </edge>
    <edge id=":106_20" function="internal">
        <lane id=":106_20_0" index="0" disallow="tram rail_urban rail rail_electric rail_fast ship" speed="8.33" length="10.48" shape="898.45,1747.26 898.62,1750.38 897.30,1753.47 894.46,1756.28"/>
    </edge>
    <edge id=":106_21" function="internal">
        <lane id=":106_21_0" index="0" disallow="tram rail_urban rail rail_electric rail_fast ship" speed="3.65" length="3.23" shape="896.71,1744.81 896.26,1745.59 895.37,1745.69 894.05,1745.12"/>
    </edge>
    <edge id=":106_12" function="internal">
        <lane id=":106_12_0" index="0" disallow="tram rail_urban rail rail_electric rail_fast ship" speed="6.91" length="9.82" shape="892.55,1753.72 894.44,1751.84 895.32,1749.79 895.19,1747.55 894.05,1745.12"/>
    </edge>
    <edge id=":106_13" function="internal">
        <lane id=":106_13_0" index="0" disallow="tram rail_urban rail rail_electric rail_fast ship" speed="22.22" length="14.93" shape="892.55,1753.72 904.38,1744.61"/>
    </edge>
    <edge id=":106_14" function="internal">
        <lane id=":106_14_0" index="0" disallow="tram rail_urban rail rail_electric rail_fast ship" speed="7.86" length="4.02" shape="892.55,1753.72 896.08,1751.80"/>
    </edge>
    <edge id=":106_15" function="internal">
        <lane id=":106_15_0" index="0" disallow="tram rail_urban rail rail_electric rail_fast ship" speed="3.65" length="1.44" shape="892.55,1753.72 893.99,1753.64"/>
    </edge>
    <edge id=":106_22" function="internal">
        <lane id=":106_22_0" index="0" disallow="tram rail_urban rail rail_electric rail_fast ship" speed="7.86" length="10.49" shape="896.08,1751.80 899.31,1751.54 902.22,1752.95 904.81,1756.02"/>
    </edge>
    <edge id=":106_23" function="internal">
        <lane id=":106_23_0" index="0" disallow="tram rail_urban rail rail_electric rail_fast ship" speed="3.65" length="3.23" shape="893.99,1753.64 894.79,1754.05 894.94,1754.93 894.46,1756.28"/>
    </edge>
    <edge id=":107_0" function="internal">
        <lane id=":107_0_0" index="0" disallow="tram rail_urban rail rail_electric rail_fast ship" speed="13.89" length="13.62" shape="1021.70,1923.79 1013.84,1912.67"/>
    </edge>
    <edge id=":107_1" function="internal">
        <lane id=":107_1_0" index="0" disallow="tram rail_urban rail rail_electric rail_fast ship" speed="13.89" length="2.91" shape="1021.70,1923.79 1020.67,1921.07"/>
    </edge>
    <edge id=":107_2" function="internal">
        <lane id=":107_2_0" index="0" disallow="tram rail_urban rail rail_electric rail_fast ship" speed="3.65" length="1.44" shape="1021.70,1923.79 1021.64,1922.35"/>
    </edge>
    <edge id=":107_6" function="internal">
        <lane id=":107_6_0" index="0" disallow="tram rail_urban rail rail_electric rail_fast ship" speed="13.89" length="12.01" shape="1020.67,1921.07 1020.45,1920.51 1020.58,1916.85 1021.26,1913.01 1021.69,1909.19"/>
    </edge>
    <edge id=":107_7" function="internal">
        <lane id=":107_7_0" index="0" disallow="tram rail_urban rail rail_electric rail_fast ship" speed="3.65" length="3.23" shape="1021.64,1922.35 1022.05,1921.56 1022.94,1921.41 1024.29,1921.92"/>
    </edge>
    <edge id=":107_3" function="internal">
        <lane id=":107_3_0" index="0" disallow="tram rail_urban rail rail_electric rail_fast ship" speed="5.47" length="10.47" shape="1016.46,1910.83 1018.72,1913.49 1020.35,1914.10 1021.34,1912.67 1021.69,1909.19"/>
    </edge>
    <edge id=":107_4" function="internal">
        <lane id=":107_4_0" index="0" disallow="tram rail_urban rail rail_electric rail_fast ship" speed="13.89" length="13.58" shape="1016.46,1910.83 1024.29,1921.92"/>
    </edge>
    <edge id=":107_5" function="internal">
        <lane id=":107_5_0" index="0" disallow="tram rail_urban rail rail_electric rail_fast ship" speed="3.65" length="1.44" shape="1016.46,1910.83 1016.49,1912.27"/>
    </edge>
    <edge id=":107_8" function="internal">
        <lane id=":107_8_0" index="0" disallow="tram rail_urban rail rail_electric rail_fast ship" speed="3.65" length="3.23" shape="1016.49,1912.27 1016.07,1913.06 1015.18,1913.19 1013.84,1912.67"/>
    </edge>
    <edge id=":108_0" function="internal">
        <lane id=":108_0_0" index="0" disallow="tram rail_urban rail rail_electric rail_fast ship" speed="8.76" length="16.07" shape="1119.13,2210.54 1117.69,2216.18 1117.41,2220.53 1118.30,2223.58 1120.36,2225.34"/>
    </edge>
    <edge id=":108_1" function="internal">
        <lane id=":108_1_0" index="0" disallow="tram rail_urban rail rail_electric rail_fast ship" speed="22.22" length="19.20" shape="1119.13,2210.54 1113.21,2228.80"/>
    </edge>
    <edge id=":108_2" function="internal">
        <lane id=":108_2_0" index="0" disallow="tram rail_urban rail rail_electric rail_fast ship" speed="6.27" length="2.48" shape="1119.13,2210.54 1117.70,2212.56"/>
    </edge>
    <edge id=":108_3" function="internal">
        <lane id=":108_3_0" index="0" disallow="tram rail_urban rail rail_electric rail_fast ship" speed="3.65" length="1.44" shape="1119.13,2210.54 1118.00,2211.43"/>
    </edge>
    <edge id=":108_16" function="internal">
        <lane id=":108_16_0" index="0" disallow="tram rail_urban rail rail_electric rail_fast ship" speed="6.27" length="12.69" shape="1117.70,2212.56 1116.75,2213.90 1113.27,2215.10 1109.94,2214.06 1108.01,2210.69"/>
    </edge>
    <edge id=":108_17" function="internal">
        <lane id=":108_17_0" index="0" disallow="tram rail_urban rail rail_electric rail_fast ship" speed="3.65" length="3.23" shape="1118.00,2211.43 1117.12,2211.57 1116.48,2210.94 1116.09,2209.56"/>
    </edge>
    <edge id=":108_4" function="internal">
        <lane id=":108_4_0" index="0" disallow="tram rail_urban rail rail_electric rail_fast ship" speed="5.56" length="11.53" shape="1111.06,2209.53 1112.04,2213.31 1113.21,2214.57 1114.56,2213.32 1116.09,2209.56"/>
    </edge>
    <edge id=":108_5" function="internal">
        <lane id=":108_5_0" index="0" disallow="tram rail_urban rail rail_electric rail_fast ship" speed="12.13" length="19.07" shape="1111.06,2209.53 1112.49,2215.34 1114.52,2219.91 1117.15,2223.25 1120.36,2225.34"/>
    </edge>
    <edge id=":108_6" function="internal">
        <lane id=":108_6_0" index="0" disallow="tram rail_urban rail rail_electric rail_fast ship" speed="18.05" length="19.53" shape="1111.06,2209.53 1111.98,2213.95 1113.05,2219.23 1113.66,2224.48 1113.21,2228.80"/>
    </edge>
    <edge id=":108_7" function="internal">
        <lane id=":108_7_0" index="0" disallow="tram rail_urban rail rail_electric rail_fast ship" speed="3.67" length="1.59" shape="1111.06,2209.53 1110.73,2210.96 1110.65,2211.05"/>
    </edge>
    <edge id=":108_18" function="internal">
        <lane id=":108_18_0" index="0" disallow="tram rail_urban rail rail_electric rail_fast ship" speed="3.67" length="3.17" shape="1110.65,2211.05 1110.11,2211.63 1109.21,2211.54 1108.01,2210.69"/>
    </edge>
    <edge id=":108_8" function="internal">
        <lane id=":108_8_0" index="0" disallow="tram rail_urban rail rail_electric rail_fast ship" speed="6.79" length="12.51" shape="1105.07,2221.09 1107.10,2220.75 1108.27,2218.90 1108.58,2215.55 1108.01,2210.69"/>
    </edge>
    <edge id=":108_9" function="internal">
        <lane id=":108_9_0" index="0" disallow="tram rail_urban rail rail_electric rail_fast ship" speed="9.30" length="17.32" shape="1105.07,2221.09 1108.36,2220.80 1111.29,2218.78 1113.86,2215.03 1116.09,2209.56"/>
    </edge>
    <edge id=":108_10" function="internal">
        <lane id=":108_10_0" index="0" disallow="tram rail_urban rail rail_electric rail_fast ship" speed="13.89" length="15.90" shape="1105.07,2221.09 1108.89,2221.83 1112.84,2222.80 1116.72,2223.98 1120.36,2225.34"/>
    </edge>
    <edge id=":108_11" function="internal">
        <lane id=":108_11_0" index="0" disallow="tram rail_urban rail rail_electric rail_fast ship" speed="7.30" length="13.00" shape="1105.07,2221.09 1109.37,2222.20 1112.17,2223.85 1113.45,2226.06 1113.21,2228.80"/>
    </edge>
    <edge id=":108_12" function="internal">
        <lane id=":108_12_0" index="0" disallow="tram rail_urban rail rail_electric rail_fast ship" speed="18.05" length="17.41" shape="1110.17,2227.81 1110.61,2223.82 1110.00,2219.31 1108.94,2214.77 1108.01,2210.69"/>
    </edge>
    <edge id=":108_13" function="internal">
        <lane id=":108_13_0" index="0" disallow="tram rail_urban rail rail_electric rail_fast ship" speed="22.22" length="19.19" shape="1110.17,2227.81 1116.09,2209.56"/>
    </edge>
    <edge id=":108_14" function="internal">
        <lane id=":108_14_0" index="0" disallow="tram rail_urban rail rail_electric rail_fast ship" speed="7.22" length="2.74" shape="1110.17,2227.81 1111.54,2225.43"/>