<?xml version="1.0" encoding="UTF-8"?>

<!-- generated on 2022-04-12 17:47:58 by Eclipse SUMO netconvert Version 1.12.0
<configuration xmlns:xsi="http://www.w3.org/2001/XMLSchema-instance" xsi:noNamespaceSchemaLocation="http://sumo.dlr.de/xsd/netconvertConfiguration.xsd">

    <input>
        <osm-files value="/home/svadlmat/UTC/Project/Maps/osm/filtered/Rome_filtered.osm"/>
    </input>

    <output>
        <output-file value="/home/svadlmat/UTC/Project/Maps/sumo/Rome.net.xml"/>
    </output>

    <projection>
        <proj.utm value="true"/>
    </projection>

    <processing>
        <numerical-ids.node-start value="0"/>
        <numerical-ids.edge-start value="0"/>
        <geometry.remove value="true"/>
        <roundabouts.guess value="true"/>
    </processing>

    <ramp_guessing>
        <ramps.guess value="true"/>
    </ramp_guessing>

    <edge_removal>
        <keep-edges value="1"/>
        <remove-edges.isolated value="true"/>
    </edge_removal>

    <junctions>
        <junctions.join value="true"/>
    </junctions>

    <report>
        <aggregate-warnings value="5"/>
    </report>

</configuration>
-->

<net version="1.9" junctionCornerDetail="5" limitTurnSpeed="5.50" xmlns:xsi="http://www.w3.org/2001/XMLSchema-instance" xsi:noNamespaceSchemaLocation="http://sumo.dlr.de/xsd/net_file.xsd">

    <location netOffset="-293108.93,-4639217.53" convBoundary="0.00,0.00,1003.42,910.41" origBoundary="12.506548,41.878088,12.518780,41.886193" projParameter="+proj=utm +zone=33 +ellps=WGS84 +datum=WGS84 +units=m +no_defs"/>

    <type id="highway.bridleway" priority="1" numLanes="1" speed="2.78" allow="pedestrian" oneway="1" width="2.00"/>
    <type id="highway.bus_guideway" priority="1" numLanes="1" speed="27.78" allow="bus" oneway="1"/>
    <type id="highway.cycleway" priority="1" numLanes="1" speed="8.33" allow="bicycle" oneway="0" width="1.00"/>
    <type id="highway.footway" priority="1" numLanes="1" speed="2.78" allow="pedestrian" oneway="1" width="2.00"/>
    <type id="highway.ford" priority="1" numLanes="1" speed="2.78" allow="army" oneway="0"/>
    <type id="highway.living_street" priority="2" numLanes="1" speed="2.78" disallow="tram rail_urban rail rail_electric rail_fast ship" oneway="0"/>
    <type id="highway.motorway" priority="14" numLanes="2" speed="39.44" allow="private emergency authority army vip passenger hov taxi bus coach delivery truck trailer motorcycle evehicle custom1 custom2" oneway="1"/>
    <type id="highway.motorway_link" priority="9" numLanes="1" speed="22.22" allow="private emergency authority army vip passenger hov taxi bus coach delivery truck trailer motorcycle evehicle custom1 custom2" oneway="1"/>
    <type id="highway.path" priority="1" numLanes="1" speed="2.78" allow="pedestrian bicycle" oneway="0" width="2.00"/>
    <type id="highway.pedestrian" priority="1" numLanes="1" speed="2.78" allow="pedestrian" oneway="1" width="2.00"/>
    <type id="highway.primary" priority="12" numLanes="2" speed="27.78" disallow="tram rail_urban rail rail_electric rail_fast ship" oneway="0"/>
    <type id="highway.primary_link" priority="7" numLanes="1" speed="22.22" disallow="tram rail_urban rail rail_electric rail_fast ship" oneway="0"/>
    <type id="highway.raceway" priority="15" numLanes="2" speed="83.33" allow="vip" oneway="0"/>
    <type id="highway.residential" priority="3" numLanes="1" speed="13.89" disallow="tram rail_urban rail rail_electric rail_fast ship" oneway="0"/>
    <type id="highway.secondary" priority="11" numLanes="1" speed="27.78" disallow="tram rail_urban rail rail_electric rail_fast ship" oneway="0"/>
    <type id="highway.secondary_link" priority="6" numLanes="1" speed="22.22" disallow="tram rail_urban rail rail_electric rail_fast ship" oneway="0"/>
    <type id="highway.service" priority="1" numLanes="1" speed="5.56" allow="pedestrian delivery bicycle" oneway="0"/>
    <type id="highway.stairs" priority="1" numLanes="1" speed="1.39" allow="pedestrian" oneway="1" width="2.00"/>
    <type id="highway.step" priority="1" numLanes="1" speed="1.39" allow="pedestrian" oneway="1" width="2.00"/>
    <type id="highway.steps" priority="1" numLanes="1" speed="1.39" allow="pedestrian" oneway="1" width="2.00"/>
    <type id="highway.tertiary" priority="10" numLanes="1" speed="22.22" disallow="tram rail_urban rail rail_electric rail_fast ship" oneway="0"/>
    <type id="highway.tertiary_link" priority="5" numLanes="1" speed="22.22" disallow="tram rail_urban rail rail_electric rail_fast ship" oneway="0"/>
    <type id="highway.track" priority="1" numLanes="1" speed="5.56" allow="pedestrian motorcycle moped bicycle" oneway="0"/>
    <type id="highway.trunk" priority="13" numLanes="2" speed="27.78" disallow="pedestrian bicycle tram rail_urban rail rail_electric rail_fast ship" oneway="0"/>
    <type id="highway.trunk_link" priority="8" numLanes="1" speed="22.22" disallow="pedestrian bicycle tram rail_urban rail rail_electric rail_fast ship" oneway="0"/>
    <type id="highway.unclassified" priority="4" numLanes="1" speed="13.89" disallow="tram rail_urban rail rail_electric rail_fast ship" oneway="0"/>
    <type id="highway.unsurfaced" priority="1" numLanes="1" speed="8.33" disallow="tram rail_urban rail rail_electric rail_fast ship" oneway="0"/>
    <type id="railway.highspeed" priority="21" numLanes="1" speed="69.44" allow="rail_fast" oneway="1"/>
    <type id="railway.light_rail" priority="19" numLanes="1" speed="27.78" allow="rail_urban" oneway="1"/>
    <type id="railway.preserved" priority="16" numLanes="1" speed="27.78" allow="rail" oneway="1"/>
    <type id="railway.rail" priority="20" numLanes="1" speed="44.44" allow="rail" oneway="1"/>
    <type id="railway.subway" priority="18" numLanes="1" speed="27.78" allow="rail_urban" oneway="1"/>
    <type id="railway.tram" priority="17" numLanes="1" speed="13.89" allow="tram" oneway="1"/>

    <edge id=":0_0" function="internal">
        <lane id=":0_0_0" index="0" disallow="tram rail_urban rail rail_electric rail_fast ship" speed="13.89" length="8.02" shape="307.24,378.06 299.72,375.70"/>
        <lane id=":0_0_1" index="1" disallow="tram rail_urban rail rail_electric rail_fast ship" speed="13.89" length="8.02" shape="308.36,375.06 300.58,372.59"/>
    </edge>
    <edge id=":0_2" function="internal">
        <lane id=":0_2_0" index="0" disallow="tram rail_urban rail rail_electric rail_fast ship" speed="6.23" length="7.08" shape="308.36,375.06 306.50,374.12 305.26,372.93 304.66,371.48 304.68,369.77"/>
    </edge>
    <edge id=":1_0" function="internal">
        <lane id=":1_0_0" index="0" disallow="tram rail_urban rail rail_electric rail_fast ship" speed="6.13" length="0.97" shape="242.45,453.91 241.92,453.10"/>
    </edge>
    <edge id=":1_1" function="internal">
        <lane id=":1_1_0" index="0" disallow="tram rail_urban rail rail_electric rail_fast ship" speed="3.65" length="0.87" shape="242.45,453.91 242.22,453.07"/>
    </edge>
    <edge id=":1_4" function="internal">
        <lane id=":1_4_0" index="0" disallow="tram rail_urban rail rail_electric rail_fast ship" speed="6.13" length="6.80" shape="241.92,453.10 241.67,452.72 241.68,451.18 242.49,449.29 244.08,447.05"/>
    </edge>
    <edge id=":1_5" function="internal">
        <lane id=":1_5_0" index="0" disallow="tram rail_urban rail rail_electric rail_fast ship" speed="3.65" length="3.80" shape="242.22,453.07 242.06,452.52 242.28,451.65 243.11,451.31 244.54,451.48"/>
    </edge>
    <edge id=":1_2" function="internal">
        <lane id=":1_2_0" index="0" disallow="tram rail_urban rail rail_electric rail_fast ship" speed="13.89" length="9.39" shape="238.08,454.26 244.08,447.05"/>
    </edge>
    <edge id=":1_3" function="internal">
        <lane id=":1_3_0" index="0" disallow="tram rail_urban rail rail_electric rail_fast ship" speed="6.07" length="7.79" shape="238.08,454.26 240.01,452.27 241.73,451.15 243.24,450.89 244.54,451.48"/>
    </edge>
    <edge id=":10_0" function="internal">
        <lane id=":10_0_0" index="0" disallow="tram rail_urban rail rail_electric rail_fast ship" speed="7.20" length="7.19" shape="564.47,559.72 563.20,561.39 562.47,563.04 562.27,564.67 562.60,566.28"/>
        <lane id=":10_0_1" index="1" disallow="tram rail_urban rail rail_electric rail_fast ship" speed="8.66" length="10.70" shape="562.10,557.57 560.30,559.99 559.29,562.43 559.06,564.90 559.60,567.40"/>
    </edge>
    <edge id=":10_2" function="internal">
        <lane id=":10_2_0" index="0" disallow="tram rail_urban rail rail_electric rail_fast ship" speed="6.63" length="9.15" shape="562.10,557.57 559.80,559.74 557.74,560.93 555.91,561.15 554.32,560.40"/>
        <lane id=":10_2_1" index="1" disallow="tram rail_urban rail rail_electric rail_fast ship" speed="5.70" length="6.48" shape="562.10,557.57 560.74,558.70 559.33,559.14 557.88,558.89 556.38,557.95"/>
    </edge>
    <edge id=":100_0" function="internal">
        <lane id=":100_0_0" index="0" disallow="tram rail_urban rail rail_electric rail_fast ship" speed="13.89" length="20.53" shape="460.42,406.28 440.20,402.68"/>
        <lane id=":100_0_1" index="1" disallow="tram rail_urban rail rail_electric rail_fast ship" speed="13.89" length="20.53" shape="460.94,403.12 440.74,399.52"/>
    </edge>
    <edge id=":100_2" function="internal">
        <lane id=":100_2_0" index="0" disallow="tram rail_urban rail rail_electric rail_fast ship" speed="8.23" length="9.44" shape="457.88,380.96 459.06,383.89 460.38,386.06 461.84,387.47 463.43,388.12"/>
        <lane id=":100_2_1" index="1" disallow="tram rail_urban rail rail_electric rail_fast ship" speed="9.53" length="12.89" shape="454.85,381.98 456.42,385.73 458.28,388.53 460.45,390.38 462.90,391.28"/>
    </edge>
    <edge id=":100_4" function="internal">
        <lane id=":100_4_0" index="0" disallow="tram rail_urban rail rail_electric rail_fast ship" speed="13.89" length="20.40" shape="443.32,384.63 463.43,388.12"/>
        <lane id=":100_4_1" index="1" disallow="tram rail_urban rail rail_electric rail_fast ship" speed="13.89" length="20.40" shape="442.81,387.79 462.90,391.28"/>
    </edge>
    <edge id=":100_6" function="internal">
        <lane id=":100_6_0" index="0" disallow="tram rail_urban rail rail_electric rail_fast ship" speed="6.14" length="14.01" shape="442.81,387.79 446.69,391.50 447.64,394.69 445.65,397.37 443.84,398.16"/>
    </edge>
    <edge id=":100_7" function="internal">
        <lane id=":100_7_0" index="0" disallow="tram rail_urban rail rail_electric rail_fast ship" speed="6.14" length="3.39" shape="443.84,398.16 440.74,399.52"/>
    </edge>
    <edge id=":101_0" function="internal">
        <lane id=":101_0_0" index="0" disallow="tram rail_urban rail rail_electric rail_fast ship" speed="13.89" length="27.94" shape="283.53,825.70 279.14,822.85 273.15,818.78 267.32,813.49 263.40,806.99"/>
    </edge>
    <edge id=":101_1" function="internal">
        <lane id=":101_1_0" index="0" disallow="tram rail_urban rail rail_electric rail_fast ship" speed="6.99" length="10.81" shape="283.53,825.70 282.35,824.13 282.29,822.02 283.36,819.36 285.55,816.17"/>
    </edge>
    <edge id=":101_2" function="internal">
        <lane id=":101_2_0" index="0" disallow="tram rail_urban rail rail_electric rail_fast ship" speed="3.65" length="4.67" shape="283.53,825.70 283.05,824.34 283.21,823.46 284.01,823.06 285.45,823.14"/>
    </edge>
    <edge id=":101_3" function="internal">
        <lane id=":101_3_0" index="0" disallow="tram rail_urban rail rail_electric rail_fast ship" speed="8.20" length="21.55" shape="269.47,804.96 272.64,812.48 275.96,816.52 279.42,817.09 283.04,814.18"/>
    </edge>
    <edge id=":101_4" function="internal">
        <lane id=":101_4_0" index="0" disallow="tram rail_urban rail rail_electric rail_fast ship" speed="13.89" length="24.60" shape="269.47,804.96 272.74,811.38 277.15,816.48 281.71,820.37 285.45,823.14"/>
    </edge>
    <edge id=":101_5" function="internal">
        <lane id=":101_5_0" index="0" disallow="tram rail_urban rail rail_electric rail_fast ship" speed="3.65" length="1.24" shape="266.43,805.97 266.11,807.16"/>
    </edge>
    <edge id=":101_14" function="internal">
        <lane id=":101_14_0" index="0" disallow="tram rail_urban rail rail_electric rail_fast ship" speed="3.65" length="3.44" shape="266.11,807.16 266.05,807.36 265.42,808.00 264.54,807.87 263.40,806.99"/>
    </edge>
    <edge id=":101_6" function="internal">
        <lane id=":101_6_0" index="0" disallow="tram rail_urban rail rail_electric rail_fast ship" speed="10.51" length="12.87" shape="256.77,819.94 258.91,816.42 260.23,813.26 260.71,810.46 260.36,808.00"/>
    </edge>
    <edge id=":101_7" function="internal">
        <lane id=":101_7_0" index="0" disallow="tram rail_urban rail rail_electric rail_fast ship" speed="13.89" length="27.62" shape="256.77,819.94 262.40,816.67 269.71,816.91 277.11,817.23 283.04,814.18"/>
        <lane id=":101_7_1" index="1" disallow="tram rail_urban rail rail_electric rail_fast ship" speed="13.89" length="27.62" shape="259.78,821.21 265.33,818.06 272.47,818.55 279.70,819.10 285.55,816.17"/>
    </edge>
    <edge id=":101_9" function="internal">
        <lane id=":101_9_0" index="0" disallow="tram rail_urban rail rail_electric rail_fast ship" speed="11.11" length="29.11" shape="259.78,821.21 264.34,817.07 270.14,816.00 277.18,818.03 285.45,823.14"/>
    </edge>
    <edge id=":101_10" function="internal">
        <lane id=":101_10_0" index="0" disallow="tram rail_urban rail rail_electric rail_fast ship" speed="13.89" length="25.09" shape="275.18,827.74 275.41,821.93 271.92,817.45 267.12,812.93 263.40,806.99"/>
    </edge>
    <edge id=":101_11" function="internal">
        <lane id=":101_11_0" index="0" disallow="tram rail_urban rail rail_electric rail_fast ship" speed="13.89" length="15.33" shape="275.18,827.74 276.99,823.43 278.41,820.55 280.18,817.87 283.04,814.18"/>
        <lane id=":101_11_1" index="1" disallow="tram rail_urban rail rail_electric rail_fast ship" speed="13.89" length="15.33" shape="278.13,828.98 279.84,824.91 281.18,822.19 282.85,819.66 285.55,816.17"/>
    </edge>
    <edge id=":101_13" function="internal">
        <lane id=":101_13_0" index="0" disallow="tram rail_urban rail rail_electric rail_fast ship" speed="6.53" length="10.82" shape="278.13,828.98 279.93,825.38 281.75,823.21 283.59,822.46 285.45,823.14"/>
    </edge>
    <edge id=":102_0" function="internal">
        <lane id=":102_0_0" index="0" disallow="tram rail_urban rail rail_electric rail_fast ship" speed="13.89" length="35.99" shape="151.12,484.59 139.84,450.31"/>
        <lane id=":102_0_1" index="1" disallow="tram rail_urban rail rail_electric rail_fast ship" speed="13.89" length="35.99" shape="154.11,483.45 142.90,449.36"/>
    </edge>
    <edge id=":102_2" function="internal">
        <lane id=":102_2_0" index="0" disallow="tram rail_urban rail rail_electric rail_fast ship" speed="10.31" length="2.97" shape="154.11,483.45 153.90,480.49"/>
    </edge>
    <edge id=":102_3" function="internal">
        <lane id=":102_3_0" index="0" disallow="tram rail_urban rail rail_electric rail_fast ship" speed="3.65" length="1.44" shape="154.11,483.45 154.43,482.05"/>
    </edge>
    <edge id=":102_14" function="internal">
        <lane id=":102_14_0" index="0" disallow="tram rail_urban rail rail_electric rail_fast ship" speed="10.31" length="24.22" shape="153.90,480.49 153.70,477.71 157.04,473.51 163.43,470.47 172.13,468.21"/>
    </edge>
    <edge id=":102_15" function="internal">
        <lane id=":102_15_0" index="0" disallow="tram rail_urban rail rail_electric rail_fast ship" speed="3.65" length="3.23" shape="154.43,482.05 155.04,481.39 155.93,481.48 157.10,482.32"/>
    </edge>
    <edge id=":102_4" function="internal">
        <lane id=":102_4_0" index="0" disallow="tram rail_urban rail rail_electric rail_fast ship" speed="12.44" length="32.49" shape="163.41,451.63 158.66,455.87 156.52,462.20 157.00,470.64 160.09,481.18"/>
    </edge>
    <edge id=":102_5" function="internal">
        <lane id=":102_5_0" index="0" disallow="tram rail_urban rail rail_electric rail_fast ship" speed="9.64" length="24.04" shape="163.41,451.63 155.74,454.85 149.77,455.54 145.49,453.71 142.90,449.36"/>
    </edge>
    <edge id=":102_6" function="internal">
        <lane id=":102_6_0" index="0" disallow="tram rail_urban rail rail_electric rail_fast ship" speed="7.89" length="27.37" shape="163.41,451.63 171.81,452.50 176.06,455.56 176.17,460.79 172.13,468.21"/>
    </edge>
    <edge id=":102_7" function="internal">
        <lane id=":102_7_0" index="0" disallow="tram rail_urban rail rail_electric rail_fast ship" speed="12.65" length="34.33" shape="149.01,447.47 153.25,457.77 158.52,464.66 164.81,468.14 172.13,468.21"/>
    </edge>
    <edge id=":102_8" function="internal">
        <lane id=":102_8_0" index="0" disallow="tram rail_urban rail rail_electric rail_fast ship" speed="13.89" length="35.59" shape="149.01,447.47 160.09,481.18"/>
        <lane id=":102_8_1" index="1" disallow="tram rail_urban rail rail_electric rail_fast ship" speed="13.89" length="35.59" shape="145.96,448.42 157.10,482.32"/>
    </edge>
    <edge id=":102_10" function="internal">
        <lane id=":102_10_0" index="0" disallow="tram rail_urban rail rail_electric rail_fast ship" speed="3.65" length="1.44" shape="145.96,448.42 145.55,449.80"/>
    </edge>
    <edge id=":102_16" function="internal">
        <lane id=":102_16_0" index="0" disallow="tram rail_urban rail rail_electric rail_fast ship" speed="3.65" length="3.23" shape="145.55,449.80 144.90,450.42 144.02,450.27 142.90,449.36"/>
    </edge>
    <edge id=":102_11" function="internal">
        <lane id=":102_11_0" index="0" disallow="tram rail_urban rail rail_electric rail_fast ship" speed="13.89" length="41.24" shape="138.35,489.93 142.29,483.20 143.85,474.35 143.04,463.39 139.84,450.31"/>
    </edge>
    <edge id=":102_12" function="internal">
        <lane id=":102_12_0" index="0" disallow="tram rail_urban rail rail_electric rail_fast ship" speed="13.89" length="40.27" shape="138.35,489.93 144.35,485.12 154.66,478.06 165.26,471.51 172.13,468.21"/>
    </edge>
    <edge id=":102_13" function="internal">
        <lane id=":102_13_0" index="0" disallow="tram rail_urban rail rail_electric rail_fast ship" speed="8.86" length="24.01" shape="138.35,489.93 144.05,484.14 149.46,480.11 154.00,479.09 157.10,482.32"/>
    </edge>
    <edge id=":103_0" function="internal">
        <lane id=":103_0_0" index="0" disallow="tram rail_urban rail rail_electric rail_fast ship" speed="13.89" length="27.44" shape="709.19,737.45 701.85,711.00"/>
        <lane id=":103_0_1" index="1" disallow="tram rail_urban rail rail_electric rail_fast ship" speed="13.89" length="27.44" shape="712.27,736.58 704.93,710.16"/>
    </edge>
    <edge id=":103_2" function="internal">
        <lane id=":103_2_0" index="0" disallow="tram rail_urban rail rail_electric rail_fast ship" speed="10.49" length="7.92" shape="712.27,736.58 710.83,728.80"/>
    </edge>
    <edge id=":103_3" function="internal">
        <lane id=":103_3_0" index="0" disallow="tram rail_urban rail rail_electric rail_fast ship" speed="3.65" length="1.44" shape="712.27,736.58 712.71,735.21"/>
    </edge>
    <edge id=":103_16" function="internal">
        <lane id=":103_16_0" index="0" disallow="tram rail_urban rail rail_electric rail_fast ship" speed="10.49" length="17.06" shape="710.83,728.80 710.80,728.59 711.41,722.39 714.11,717.98 718.89,715.38"/>
    </edge>
    <edge id=":103_17" function="internal">
        <lane id=":103_17_0" index="0" disallow="tram rail_urban rail rail_electric rail_fast ship" speed="3.65" length="3.23" shape="712.71,735.21 713.37,734.61 714.25,734.78 715.35,735.71"/>
    </edge>
    <edge id=":103_4" function="internal">
        <lane id=":103_4_0" index="0" disallow="tram rail_urban rail rail_electric rail_fast ship" speed="8.21" length="14.87" shape="720.69,721.52 718.46,722.97 717.34,725.67 717.33,729.63 718.42,734.84"/>
        <lane id=":103_4_1" index="1" disallow="tram rail_urban rail rail_electric rail_fast ship" speed="9.41" length="19.90" shape="719.79,718.45 716.28,720.47 714.38,724.03 714.06,729.11 715.35,735.71"/>
    </edge>
    <edge id=":103_6" function="internal">
        <lane id=":103_6_0" index="0" disallow="tram rail_urban rail rail_electric rail_fast ship" speed="9.23" length="3.26" shape="719.79,718.45 716.56,718.91"/>
    </edge>
    <edge id=":103_7" function="internal">
        <lane id=":103_7_0" index="0" disallow="tram rail_urban rail rail_electric rail_fast ship" speed="3.65" length="1.44" shape="719.79,718.45 718.41,718.02"/>
    </edge>
    <edge id=":103_18" function="internal">
        <lane id=":103_18_0" index="0" disallow="tram rail_urban rail rail_electric rail_fast ship" speed="9.23" length="16.22" shape="716.56,718.91 714.49,719.21 710.25,718.08 707.06,715.06 704.93,710.16"/>
    </edge>
    <edge id=":103_19" function="internal">
        <lane id=":103_19_0" index="0" disallow="tram rail_urban rail rail_electric rail_fast ship" speed="3.65" length="3.23" shape="718.41,718.02 717.81,717.36 717.96,716.48 718.89,715.38"/>
    </edge>
    <edge id=":103_8" function="internal">
        <lane id=":103_8_0" index="0" disallow="tram rail_urban rail rail_electric rail_fast ship" speed="6.47" length="9.03" shape="711.10,708.46 712.09,710.74 713.57,712.14 715.54,712.66 717.99,712.31"/>
    </edge>
    <edge id=":103_9" function="internal">
        <lane id=":103_9_0" index="0" disallow="tram rail_urban rail rail_electric rail_fast ship" speed="13.89" length="27.39" shape="711.10,708.46 718.42,734.84"/>
        <lane id=":103_9_1" index="1" disallow="tram rail_urban rail rail_electric rail_fast ship" speed="13.89" length="27.39" shape="708.02,709.31 715.35,735.71"/>
    </edge>
    <edge id=":103_11" function="internal">
        <lane id=":103_11_0" index="0" disallow="tram rail_urban rail rail_electric rail_fast ship" speed="3.65" length="1.44" shape="708.02,709.31 707.56,710.68"/>
    </edge>
    <edge id=":103_20" function="internal">
        <lane id=":103_20_0" index="0" disallow="tram rail_urban rail rail_electric rail_fast ship" speed="3.65" length="3.23" shape="707.56,710.68 706.90,711.28 706.02,711.10 704.93,710.16"/>
    </edge>
    <edge id=":103_12" function="internal">
        <lane id=":103_12_0" index="0" disallow="tram rail_urban rail rail_electric rail_fast ship" speed="6.63" length="9.19" shape="697.95,718.13 700.22,717.06 701.62,715.51 702.16,713.49 701.85,711.00"/>
    </edge>
    <edge id=":103_13" function="internal">
        <lane id=":103_13_0" index="0" disallow="tram rail_urban rail rail_electric rail_fast ship" speed="13.89" length="21.37" shape="698.72,721.24 704.67,718.91 708.56,716.65 712.36,714.45 717.99,712.31"/>
        <lane id=":103_13_1" index="1" disallow="tram rail_urban rail rail_electric rail_fast ship" speed="13.89" length="21.37" shape="699.50,724.35 705.48,722.01 709.42,719.73 713.25,717.52 718.89,715.38"/>
    </edge>
    <edge id=":103_15" function="internal">
        <lane id=":103_15_0" index="0" disallow="tram rail_urban rail rail_electric rail_fast ship" speed="9.26" length="13.35" shape="700.27,727.46 705.61,726.61 709.90,727.71 712.47,730.11"/>
    </edge>
    <edge id=":103_21" function="internal">
        <lane id=":103_21_0" index="0" disallow="tram rail_urban rail rail_electric rail_fast ship" speed="9.26" length="6.37" shape="712.47,730.11 713.14,730.74 715.35,735.71"/>
    </edge>
    <edge id=":104_0" function="internal">
        <lane id=":104_0_0" index="0" disallow="tram rail_urban rail rail_electric rail_fast ship" speed="6.56" length="9.11" shape="431.36,685.50 429.23,684.17 427.18,683.83 425.23,684.47 423.38,686.10"/>
    </edge>
    <edge id=":104_1" function="internal">
        <lane id=":104_1_0" index="0" disallow="tram rail_urban rail rail_electric rail_fast ship" speed="11.34" length="29.71" shape="433.41,683.05 424.23,674.90 418.21,668.45 415.35,663.70 415.64,660.64"/>
    </edge>
    <edge id=":104_2" function="internal">
        <lane id=":104_2_0" index="0" disallow="tram rail_urban rail rail_electric rail_fast ship" speed="13.89" length="14.39" shape="432.78,675.20 423.38,686.10"/>
        <lane id=":104_2_1" index="1" disallow="tram rail_urban rail rail_electric rail_fast ship" speed="13.89" length="14.39" shape="430.34,673.13 420.94,684.03"/>
    </edge>
    <edge id=":104_4" function="internal">
        <lane id=":104_4_0" index="0" disallow="tram rail_urban rail rail_electric rail_fast ship" speed="7.64" length="24.76" shape="430.34,673.13 421.98,675.52 416.75,674.23 414.63,669.28 415.25,664.02"/>
    </edge>
    <edge id=":104_10" function="internal">
        <lane id=":104_10_0" index="0" disallow="tram rail_urban rail rail_electric rail_fast ship" speed="7.64" length="3.40" shape="415.25,664.02 415.64,660.64"/>
    </edge>
    <edge id=":104_5" function="internal">
        <lane id=":104_5_0" index="0" disallow="tram rail_urban rail rail_electric rail_fast ship" speed="6.77" length="9.89" shape="404.64,659.99 406.77,661.27 408.91,661.46 411.05,660.56 413.20,658.57"/>
    </edge>
    <edge id=":104_6" function="internal">
        <lane id=":104_6_0" index="0" disallow="tram rail_urban rail rail_electric rail_fast ship" speed="11.56" length="30.68" shape="404.64,659.99 413.63,668.33 419.34,675.12 421.78,680.35 420.94,684.03"/>
    </edge>
    <edge id=":104_7" function="internal">
        <lane id=":104_7_0" index="0" disallow="tram rail_urban rail rail_electric rail_fast ship" speed="13.89" length="14.34" shape="403.98,669.55 413.20,658.57"/>
        <lane id=":104_7_1" index="1" disallow="tram rail_urban rail rail_electric rail_fast ship" speed="13.89" length="14.34" shape="406.42,671.63 415.64,660.64"/>
    </edge>
    <edge id=":104_9" function="internal">
        <lane id=":104_9_0" index="0" disallow="tram rail_urban rail rail_electric rail_fast ship" speed="7.61" length="24.51" shape="406.42,671.63 414.70,669.28 419.88,670.56 421.96,675.48 421.34,680.67"/>
    </edge>
    <edge id=":104_11" function="internal">
        <lane id=":104_11_0" index="0" disallow="tram rail_urban rail rail_electric rail_fast ship" speed="7.61" length="3.38" shape="421.34,680.67 420.94,684.03"/>
    </edge>
    <edge id=":105_0" function="internal">
        <lane id=":105_0_0" index="0" disallow="tram rail_urban rail rail_electric rail_fast ship" speed="6.51" length="8.99" shape="362.08,758.36 360.77,760.44 360.44,762.45 361.09,764.38 362.72,766.23"/>
    </edge>
    <edge id=":105_1" function="internal">
        <lane id=":105_1_0" index="0" disallow="tram rail_urban rail rail_electric rail_fast ship" speed="13.89" length="14.27" shape="362.08,758.36 352.75,769.21"/>
        <lane id=":105_1_1" index="1" disallow="tram rail_urban rail rail_electric rail_fast ship" speed="13.89" length="14.27" shape="359.63,756.29 350.36,767.09"/>
    </edge>
    <edge id=":105_3" function="internal">
        <lane id=":105_3_0" index="0" disallow="tram rail_urban rail rail_electric rail_fast ship" speed="10.35" length="20.97" shape="343.95,761.40 347.65,759.67 352.02,759.89 357.04,762.08 362.72,766.23"/>
        <lane id=":105_3_1" index="1" disallow="tram rail_urban rail rail_electric rail_fast ship" speed="9.14" length="16.17" shape="346.38,763.56 348.87,762.59 352.08,763.12 356.00,765.14 360.65,768.66"/>
    </edge>
    <edge id=":105_5" function="internal">
        <lane id=":105_5_0" index="0" disallow="tram rail_urban rail rail_electric rail_fast ship" speed="4.49" length="7.76" shape="346.38,763.56 348.70,762.95 350.13,763.33 350.69,764.71 350.36,767.09"/>
    </edge>
    <edge id=":106_0" function="internal">
        <lane id=":106_0_0" index="0" disallow="tram rail_urban rail rail_electric rail_fast ship" speed="13.89" length="4.49" shape="311.25,816.60 308.29,819.99"/>
        <lane id=":106_0_1" index="1" disallow="tram rail_urban rail rail_electric rail_fast ship" speed="13.89" length="4.49" shape="308.85,814.50 305.90,817.86"/>
    </edge>
    <edge id=":12_0" function="internal">
        <lane id=":12_0_0" index="0" disallow="tram rail_urban rail rail_electric rail_fast ship" speed="3.65" length="4.67" shape="860.51,342.38 861.84,341.82 862.73,341.92 863.18,342.69 863.19,344.13"/>
    </edge>
    <edge id=":13_0" function="internal">
        <lane id=":13_0_0" index="0" disallow="tram rail_urban rail rail_electric rail_fast ship" speed="13.89" length="14.47" shape="845.17,419.04 830.82,420.88"/>
    </edge>
    <edge id=":13_1" function="internal">
        <lane id=":13_1_0" index="0" disallow="tram rail_urban rail rail_electric rail_fast ship" speed="7.98" length="4.13" shape="845.17,419.04 841.26,419.01 841.06,418.92"/>
    </edge>
    <edge id=":13_2" function="internal">
        <lane id=":13_2_0" index="0" disallow="tram rail_urban rail rail_electric rail_fast ship" speed="3.65" length="1.44" shape="845.17,419.04 843.88,418.41"/>
    </edge>
    <edge id=":13_9" function="internal">
        <lane id=":13_9_0" index="0" disallow="tram rail_urban rail rail_electric rail_fast ship" speed="7.98" length="10.12" shape="841.06,418.92 838.31,417.73 836.34,415.20 835.32,411.42"/>
    </edge>
    <edge id=":13_10" function="internal">
        <lane id=":13_10_0" index="0" disallow="tram rail_urban rail rail_electric rail_fast ship" speed="3.65" length="3.23" shape="843.88,418.41 843.37,417.67 843.66,416.82 844.74,415.87"/>
    </edge>
    <edge id=":13_3" function="internal">
        <lane id=":13_3_0" index="0" disallow="tram rail_urban rail rail_electric rail_fast ship" speed="6.48" length="9.03" shape="838.50,411.04 839.14,413.43 840.40,415.04 842.26,415.85 844.74,415.87"/>
    </edge>
    <edge id=":13_4" function="internal">
        <lane id=":13_4_0" index="0" disallow="tram rail_urban rail rail_electric rail_fast ship" speed="8.01" length="14.23" shape="838.50,411.04 838.42,414.95 837.11,417.89 834.58,419.87 830.82,420.88"/>