<?xml version="1.0" encoding="UTF-8"?>

<!-- generated on 2022-04-12 17:47:58 by Eclipse SUMO netconvert Version 1.12.0
<configuration xmlns:xsi="http://www.w3.org/2001/XMLSchema-instance" xsi:noNamespaceSchemaLocation="http://sumo.dlr.de/xsd/netconvertConfiguration.xsd">

    <input>
        <osm-files value="/home/svadlmat/UTC/Project/Maps/osm/filtered/San_Francisco_filtered.osm"/>
    </input>

    <output>
        <output-file value="/home/svadlmat/UTC/Project/Maps/sumo/San_Francisco.net.xml"/>
    </output>

    <projection>
        <proj.utm value="true"/>
    </projection>

    <processing>
        <numerical-ids.node-start value="0"/>
        <numerical-ids.edge-start value="0"/>
        <geometry.remove value="true"/>
        <roundabouts.guess value="true"/>
    </processing>

    <ramp_guessing>
        <ramps.guess value="true"/>
    </ramp_guessing>

    <edge_removal>
        <keep-edges value="1"/>
        <remove-edges.isolated value="true"/>
    </edge_removal>

    <junctions>
        <junctions.join value="true"/>
    </junctions>

    <report>
        <aggregate-warnings value="5"/>
    </report>

</configuration>
-->

<net version="1.9" junctionCornerDetail="5" limitTurnSpeed="5.50" xmlns:xsi="http://www.w3.org/2001/XMLSchema-instance" xsi:noNamespaceSchemaLocation="http://sumo.dlr.de/xsd/net_file.xsd">

    <location netOffset="-568133.27,-4148682.09" convBoundary="0.00,0.00,995.11,1041.96" origBoundary="-122.229298,37.482506,-122.218050,37.491867" projParameter="+proj=utm +zone=10 +ellps=WGS84 +datum=WGS84 +units=m +no_defs"/>

    <type id="highway.bridleway" priority="1" numLanes="1" speed="2.78" allow="pedestrian" oneway="1" width="2.00"/>
    <type id="highway.bus_guideway" priority="1" numLanes="1" speed="27.78" allow="bus" oneway="1"/>
    <type id="highway.cycleway" priority="1" numLanes="1" speed="8.33" allow="bicycle" oneway="0" width="1.00"/>
    <type id="highway.footway" priority="1" numLanes="1" speed="2.78" allow="pedestrian" oneway="1" width="2.00"/>
    <type id="highway.ford" priority="1" numLanes="1" speed="2.78" allow="army" oneway="0"/>
    <type id="highway.living_street" priority="2" numLanes="1" speed="2.78" disallow="tram rail_urban rail rail_electric rail_fast ship" oneway="0"/>
    <type id="highway.motorway" priority="14" numLanes="2" speed="39.44" allow="private emergency authority army vip passenger hov taxi bus coach delivery truck trailer motorcycle evehicle custom1 custom2" oneway="1"/>
    <type id="highway.motorway_link" priority="9" numLanes="1" speed="22.22" allow="private emergency authority army vip passenger hov taxi bus coach delivery truck trailer motorcycle evehicle custom1 custom2" oneway="1"/>
    <type id="highway.path" priority="1" numLanes="1" speed="2.78" allow="pedestrian bicycle" oneway="0" width="2.00"/>
    <type id="highway.pedestrian" priority="1" numLanes="1" speed="2.78" allow="pedestrian" oneway="1" width="2.00"/>
    <type id="highway.primary" priority="12" numLanes="2" speed="27.78" disallow="tram rail_urban rail rail_electric rail_fast ship" oneway="0"/>
    <type id="highway.primary_link" priority="7" numLanes="1" speed="22.22" disallow="tram rail_urban rail rail_electric rail_fast ship" oneway="0"/>
    <type id="highway.raceway" priority="15" numLanes="2" speed="83.33" allow="vip" oneway="0"/>
    <type id="highway.residential" priority="3" numLanes="1" speed="13.89" disallow="tram rail_urban rail rail_electric rail_fast ship" oneway="0"/>
    <type id="highway.secondary" priority="11" numLanes="1" speed="27.78" disallow="tram rail_urban rail rail_electric rail_fast ship" oneway="0"/>
    <type id="highway.secondary_link" priority="6" numLanes="1" speed="22.22" disallow="tram rail_urban rail rail_electric rail_fast ship" oneway="0"/>
    <type id="highway.service" priority="1" numLanes="1" speed="5.56" allow="pedestrian delivery bicycle" oneway="0"/>
    <type id="highway.stairs" priority="1" numLanes="1" speed="1.39" allow="pedestrian" oneway="1" width="2.00"/>
    <type id="highway.step" priority="1" numLanes="1" speed="1.39" allow="pedestrian" oneway="1" width="2.00"/>
    <type id="highway.steps" priority="1" numLanes="1" speed="1.39" allow="pedestrian" oneway="1" width="2.00"/>
    <type id="highway.tertiary" priority="10" numLanes="1" speed="22.22" disallow="tram rail_urban rail rail_electric rail_fast ship" oneway="0"/>
    <type id="highway.tertiary_link" priority="5" numLanes="1" speed="22.22" disallow="tram rail_urban rail rail_electric rail_fast ship" oneway="0"/>
    <type id="highway.track" priority="1" numLanes="1" speed="5.56" allow="pedestrian motorcycle moped bicycle" oneway="0"/>
    <type id="highway.trunk" priority="13" numLanes="2" speed="27.78" disallow="pedestrian bicycle tram rail_urban rail rail_electric rail_fast ship" oneway="0"/>
    <type id="highway.trunk_link" priority="8" numLanes="1" speed="22.22" disallow="pedestrian bicycle tram rail_urban rail rail_electric rail_fast ship" oneway="0"/>
    <type id="highway.unclassified" priority="4" numLanes="1" speed="13.89" disallow="tram rail_urban rail rail_electric rail_fast ship" oneway="0"/>
    <type id="highway.unsurfaced" priority="1" numLanes="1" speed="8.33" disallow="tram rail_urban rail rail_electric rail_fast ship" oneway="0"/>
    <type id="railway.highspeed" priority="21" numLanes="1" speed="69.44" allow="rail_fast" oneway="1"/>
    <type id="railway.light_rail" priority="19" numLanes="1" speed="27.78" allow="rail_urban" oneway="1"/>
    <type id="railway.preserved" priority="16" numLanes="1" speed="27.78" allow="rail" oneway="1"/>
    <type id="railway.rail" priority="20" numLanes="1" speed="44.44" allow="rail" oneway="1"/>
    <type id="railway.subway" priority="18" numLanes="1" speed="27.78" allow="rail_urban" oneway="1"/>
    <type id="railway.tram" priority="17" numLanes="1" speed="13.89" allow="tram" oneway="1"/>

    <edge id=":0_0" function="internal">
        <lane id=":0_0_0" index="0" disallow="tram rail_urban rail rail_electric rail_fast ship" speed="27.78" length="3.37" shape="201.78,847.23 198.52,847.88"/>
        <lane id=":0_0_1" index="1" disallow="tram rail_urban rail rail_electric rail_fast ship" speed="27.78" length="3.37" shape="201.20,844.08 197.84,844.75"/>
    </edge>
    <edge id=":0_2" function="internal">
        <lane id=":0_2_0" index="0" disallow="tram rail_urban rail rail_electric rail_fast ship" speed="25.00" length="3.22" shape="202.33,850.26 199.20,851.00"/>
    </edge>
    <edge id=":1_0" function="internal">
        <lane id=":1_0_0" index="0" disallow="tram rail_urban rail rail_electric rail_fast ship" speed="22.22" length="8.40" shape="181.88,960.26 182.81,957.93 182.73,956.04 182.64,954.15 183.57,951.81"/>
        <lane id=":1_0_1" index="1" disallow="tram rail_urban rail rail_electric rail_fast ship" speed="22.22" length="8.40" shape="181.88,960.26 186.25,953.56"/>
    </edge>
    <edge id=":10_0" function="internal">
        <lane id=":10_0_0" index="0" disallow="tram rail_urban rail rail_electric rail_fast ship" speed="27.78" length="8.21" shape="792.18,759.18 789.86,759.78 788.36,760.56 786.86,761.34 784.54,761.96"/>
        <lane id=":10_0_1" index="1" disallow="tram rail_urban rail rail_electric rail_fast ship" speed="27.78" length="8.21" shape="791.72,756.02 789.38,756.61 787.88,757.39 786.38,758.18 784.05,758.80"/>
        <lane id=":10_0_2" index="2" disallow="tram rail_urban rail rail_electric rail_fast ship" speed="27.78" length="8.21" shape="791.72,756.02 789.30,756.12 787.63,755.81 785.96,755.51 783.55,755.64"/>
    </edge>
    <edge id=":11_0" function="internal">
        <lane id=":11_0_0" index="0" disallow="tram rail_urban rail rail_electric rail_fast ship" speed="27.78" length="6.89" shape="758.08,766.13 756.06,766.18 754.68,765.79 753.29,765.40 751.27,765.41"/>
        <lane id=":11_0_1" index="1" disallow="tram rail_urban rail rail_electric rail_fast ship" speed="27.78" length="6.89" shape="757.58,762.97 755.58,763.02 754.21,762.63 752.83,762.23 750.83,762.24"/>
    </edge>
    <edge id=":11_2" function="internal">
        <lane id=":11_2_0" index="0" disallow="tram rail_urban rail rail_electric rail_fast ship" speed="10.00" length="5.99" shape="757.08,759.81 755.35,759.95 754.17,759.73 753.03,759.18 751.44,758.35"/>
    </edge>
    <edge id=":12_0" function="internal">
        <lane id=":12_0_0" index="0" disallow="tram rail_urban rail rail_electric rail_fast ship" speed="3.65" length="4.67" shape="934.19,498.18 935.35,499.04 935.70,499.86 935.26,500.64 934.02,501.37"/>
    </edge>
    <edge id=":13_0" function="internal">
        <lane id=":13_0_0" index="0" disallow="tram rail_urban rail rail_electric rail_fast ship" speed="27.78" length="8.19" shape="308.38,830.11 306.06,830.70 304.57,831.47 303.08,832.26 300.77,832.88"/>
        <lane id=":13_0_1" index="1" disallow="tram rail_urban rail rail_electric rail_fast ship" speed="27.78" length="8.19" shape="308.38,830.11 305.98,830.20 304.32,829.89 302.66,829.59 300.26,829.72"/>
        <lane id=":13_0_2" index="2" disallow="tram rail_urban rail rail_electric rail_fast ship" speed="27.78" length="8.19" shape="307.93,826.94 305.51,827.04 303.84,826.73 302.16,826.43 299.75,826.56"/>
    </edge>
    <edge id=":14_0" function="internal">
        <lane id=":14_0_0" index="0" disallow="tram rail_urban rail rail_electric rail_fast ship" speed="27.78" length="9.11" shape="184.29,831.65 186.64,830.38 187.70,828.47 188.76,826.55 191.10,825.28"/>
        <lane id=":14_0_1" index="1" disallow="tram rail_urban rail rail_electric rail_fast ship" speed="27.78" length="9.11" shape="184.29,831.65 186.58,830.91 188.03,830.03 189.48,829.16 191.77,828.41"/>
        <lane id=":14_0_2" index="2" disallow="tram rail_urban rail rail_electric rail_fast ship" speed="27.78" length="9.11" shape="184.29,831.65 186.68,831.40 188.37,831.60 190.05,831.80 192.45,831.54"/>
        <lane id=":14_0_3" index="3" disallow="tram rail_urban rail rail_electric rail_fast ship" speed="27.78" length="9.11" shape="184.29,831.65 186.95,831.85 188.70,833.16 190.45,834.47 193.12,834.67"/>
        <lane id=":14_0_4" index="4" disallow="tram rail_urban rail rail_electric rail_fast ship" speed="27.78" length="9.11" shape="184.96,834.78 187.62,834.98 189.37,836.29 191.13,837.60 193.79,837.80"/>
    </edge>
    <edge id=":15_0" function="internal">
        <lane id=":15_0_0" index="0" disallow="tram rail_urban rail rail_electric rail_fast ship" speed="27.78" length="8.16" shape="145.85,842.39 148.10,841.53 149.52,840.59 150.93,839.67 153.20,838.86"/>
        <lane id=":15_0_1" index="1" disallow="tram rail_urban rail rail_electric rail_fast ship" speed="27.78" length="8.16" shape="146.68,845.48 148.91,844.63 150.31,843.69 151.71,842.78 153.95,841.97"/>
    </edge>
    <edge id=":16_0" function="internal">
        <lane id=":16_0_0" index="0" disallow="tram rail_urban rail rail_electric rail_fast ship" speed="27.78" length="8.18" shape="132.88,866.58 125.30,868.78"/>
        <lane id=":16_0_1" index="1" disallow="tram rail_urban rail rail_electric rail_fast ship" speed="27.78" length="8.18" shape="132.02,863.50 124.38,865.71"/>
        <lane id=":16_0_2" index="2" disallow="tram rail_urban rail rail_electric rail_fast ship" speed="27.78" length="8.18" shape="131.16,860.42 123.45,862.65"/>
        <lane id=":16_0_3" index="3" disallow="tram rail_urban rail rail_electric rail_fast ship" speed="27.78" length="8.18" shape="131.16,860.42 128.63,860.60 126.84,859.97 125.04,859.35 122.53,859.58"/>
    </edge>
    <edge id=":17_0" function="internal">
        <lane id=":17_0_0" index="0" disallow="tram rail_urban rail rail_electric rail_fast ship" speed="3.65" length="4.67" shape="265.12,429.91 266.00,428.77 266.82,428.42 267.59,428.88 268.31,430.13"/>
    </edge>
    <edge id=":18_0" function="internal">
        <lane id=":18_0_0" index="0" disallow="tram rail_urban rail rail_electric rail_fast ship" speed="3.65" length="4.67" shape="34.78,558.14 33.63,557.28 33.27,556.46 33.71,555.68 34.95,554.95"/>
    </edge>
    <edge id=":19_0" function="internal">
        <lane id=":19_0_0" index="0" disallow="tram rail_urban rail rail_electric rail_fast ship" speed="22.22" length="8.72" shape="231.41,574.13 229.02,573.41 227.60,572.19 226.18,570.98 223.79,570.31"/>
    </edge>
    <edge id=":19_1" function="internal">
        <lane id=":19_1_0" index="0" disallow="tram rail_urban rail rail_electric rail_fast ship" speed="22.22" length="9.24" shape="224.01,567.12 226.73,566.30 228.23,564.21 229.76,562.13 232.56,561.38"/>
        <lane id=":19_1_1" index="1" disallow="tram rail_urban rail rail_electric rail_fast ship" speed="22.22" length="9.24" shape="224.01,567.12 226.52,566.79 228.14,565.81 229.77,564.85 232.27,564.57"/>
        <lane id=":19_1_2" index="2" disallow="tram rail_urban rail rail_electric rail_fast ship" speed="22.22" length="9.24" shape="224.01,567.12 231.98,567.76"/>
    </edge>
    <edge id=":2_0" function="internal">
        <lane id=":2_0_0" index="0" disallow="tram rail_urban rail rail_electric rail_fast ship" speed="22.22" length="3.18" shape="246.06,865.35 245.73,866.23 245.53,866.84 245.35,867.46 245.12,868.38"/>
    </edge>
    <edge id=":2_1" function="internal">
        <lane id=":2_1_0" index="0" disallow="tram rail_urban rail rail_electric rail_fast ship" speed="22.22" length="3.19" shape="242.62,864.46 242.49,865.40 242.39,866.04 242.25,866.67 242.01,867.59"/>
    </edge>
    <edge id=":20_0" function="internal">
        <lane id=":20_0_0" index="0" disallow="tram rail_urban rail rail_electric rail_fast ship" speed="5.56" length="9.41" shape="746.88,755.57 745.11,753.27 744.87,751.48 746.15,750.22 748.96,749.48"/>
    </edge>
    <edge id=":20_1" function="internal">
        <lane id=":20_1_0" index="0" disallow="tram rail_urban rail rail_electric rail_fast ship" speed="27.78" length="12.00" shape="736.64,747.91 748.53,746.31"/>
        <lane id=":20_1_1" index="1" disallow="tram rail_urban rail rail_electric rail_fast ship" speed="27.78" length="12.00" shape="737.07,751.08 748.96,749.48"/>
    </edge>
    <edge id=":22_0" function="internal">
        <lane id=":22_0_0" index="0" disallow="tram rail_urban rail rail_electric rail_fast ship" speed="25.00" length="3.91" shape="286.89,835.11 285.75,835.28 284.96,835.34 284.16,835.35 283.00,835.35"/>
    </edge>
    <edge id=":22_1" function="internal">
        <lane id=":22_1_0" index="0" disallow="tram rail_urban rail rail_electric rail_fast ship" speed="27.78" length="3.89" shape="286.39,831.95 285.30,832.38 284.69,833.03 284.08,833.68 283.00,834.10"/>
        <lane id=":22_1_1" index="1" disallow="tram rail_urban rail rail_electric rail_fast ship" speed="27.78" length="3.89" shape="285.88,828.79 284.93,829.20 284.43,829.83 283.93,830.47 282.99,830.86"/>
    </edge>
    <edge id=":24_0" function="internal">
        <lane id=":24_0_0" index="0" disallow="tram rail_urban rail rail_electric rail_fast ship" speed="8.92" length="10.35" shape="339.05,701.12 337.71,699.16 335.84,697.67 333.44,696.65 330.52,696.11"/>
    </edge>
    <edge id=":24_1" function="internal">
        <lane id=":24_1_0" index="0" disallow="tram rail_urban rail rail_electric rail_fast ship" speed="13.89" length="13.65" shape="339.05,701.12 337.73,697.85 336.99,694.66 336.72,691.37 336.81,687.82"/>
    </edge>
    <edge id=":24_2" function="internal">
        <lane id=":24_2_0" index="0" disallow="tram rail_urban rail rail_electric rail_fast ship" speed="3.65" length="1.44" shape="339.05,701.12 339.24,699.69"/>
    </edge>
    <edge id=":24_9" function="internal">
        <lane id=":24_9_0" index="0" disallow="tram rail_urban rail rail_electric rail_fast ship" speed="3.65" length="3.23" shape="339.24,699.69 339.79,698.98 340.68,698.99 341.93,699.71"/>
    </edge>
    <edge id=":24_3" function="internal">
        <lane id=":24_3_0" index="0" disallow="tram rail_urban rail rail_electric rail_fast ship" speed="13.89" length="12.03" shape="340.00,688.03 339.86,691.33 340.02,694.06 340.65,696.69 341.93,699.71"/>
    </edge>
    <edge id=":24_4" function="internal">
        <lane id=":24_4_0" index="0" disallow="tram rail_urban rail rail_electric rail_fast ship" speed="7.94" length="3.79" shape="340.00,688.03 339.23,691.73"/>
    </edge>
    <edge id=":24_5" function="internal">
        <lane id=":24_5_0" index="0" disallow="tram rail_urban rail rail_electric rail_fast ship" speed="3.65" length="1.44" shape="340.00,688.03 339.13,689.17"/>
    </edge>
    <edge id=":24_10" function="internal">
        <lane id=":24_10_0" index="0" disallow="tram rail_urban rail rail_electric rail_fast ship" speed="7.94" length="10.53" shape="339.23,691.73 339.20,691.88 337.35,694.52 334.45,695.93 330.52,696.11"/>
    </edge>
    <edge id=":24_11" function="internal">
        <lane id=":24_11_0" index="0" disallow="tram rail_urban rail rail_electric rail_fast ship" speed="3.65" length="3.23" shape="339.13,689.17 338.30,689.52 337.53,689.07 336.81,687.82"/>
    </edge>
    <edge id=":24_6" function="internal">
        <lane id=":24_6_0" index="0" disallow="tram rail_urban rail rail_electric rail_fast ship" speed="6.44" length="9.03" shape="330.82,692.92 333.31,692.81 335.13,691.92 336.30,690.26 336.81,687.82"/>
    </edge>
    <edge id=":24_7" function="internal">
        <lane id=":24_7_0" index="0" disallow="tram rail_urban rail rail_electric rail_fast ship" speed="10.16" length="13.61" shape="330.82,692.92 334.58,693.64 337.68,695.01 340.13,697.04 341.93,699.71"/>
    </edge>
    <edge id=":24_8" function="internal">
        <lane id=":24_8_0" index="0" disallow="tram rail_urban rail rail_electric rail_fast ship" speed="3.65" length="4.67" shape="330.82,692.92 331.94,693.83 332.26,694.67 331.79,695.43 330.52,696.11"/>
    </edge>
    <edge id=":25_0" function="internal">
        <lane id=":25_0_0" index="0" disallow="tram rail_urban rail rail_electric rail_fast ship" speed="3.65" length="4.67" shape="995.23,593.03 996.37,593.91 996.71,594.74 996.25,595.51 995.00,596.22"/>
    </edge>
    <edge id=":26_0" function="internal">
        <lane id=":26_0_0" index="0" disallow="tram rail_urban rail rail_electric rail_fast ship" speed="6.86" length="9.48" shape="468.36,645.72 467.63,643.38 466.25,641.76 464.23,640.86 461.55,640.68"/>
    </edge>
    <edge id=":26_1" function="internal">
        <lane id=":26_1_0" index="0" disallow="tram rail_urban rail rail_electric rail_fast ship" speed="13.89" length="14.42" shape="468.36,645.72 466.24,631.45"/>
    </edge>
    <edge id=":26_2" function="internal">
        <lane id=":26_2_0" index="0" disallow="tram rail_urban rail rail_electric rail_fast ship" speed="3.65" length="1.44" shape="468.36,645.72 468.97,644.42"/>
    </edge>
    <edge id=":26_9" function="internal">
        <lane id=":26_9_0" index="0" disallow="tram rail_urban rail rail_electric rail_fast ship" speed="3.65" length="3.23" shape="468.97,644.42 469.71,643.90 470.56,644.18 471.52,645.25"/>
    </edge>
    <edge id=":26_3" function="internal">
        <lane id=":26_3_0" index="0" disallow="tram rail_urban rail rail_electric rail_fast ship" speed="13.89" length="14.43" shape="469.40,630.98 471.52,645.25"/>
    </edge>
    <edge id=":26_4" function="internal">
        <lane id=":26_4_0" index="0" disallow="tram rail_urban rail rail_electric rail_fast ship" speed="7.85" length="4.14" shape="469.40,630.98 469.42,635.01 469.38,635.12"/>
    </edge>
    <edge id=":26_5" function="internal">
        <lane id=":26_5_0" index="0" disallow="tram rail_urban rail rail_electric rail_fast ship" speed="3.65" length="1.44" shape="469.40,630.98 468.79,632.29"/>
    </edge>
    <edge id=":26_10" function="internal">
        <lane id=":26_10_0" index="0" disallow="tram rail_urban rail rail_electric rail_fast ship" speed="7.85" length="10.38" shape="469.38,635.12 468.12,637.97 465.50,639.86 461.55,640.68"/>
    </edge>
    <edge id=":26_11" function="internal">
        <lane id=":26_11_0" index="0" disallow="tram rail_urban rail rail_electric rail_fast ship" speed="3.65" length="3.23" shape="468.79,632.29 468.06,632.80 467.21,632.52 466.24,631.45"/>
    </edge>
    <edge id=":26_6" function="internal">
        <lane id=":26_6_0" index="0" disallow="tram rail_urban rail rail_electric rail_fast ship" speed="6.33" length="9.04" shape="461.35,637.49 463.81,636.98 465.44,635.80 466.25,633.96 466.24,631.45"/>
    </edge>
    <edge id=":26_7" function="internal">
        <lane id=":26_7_0" index="0" disallow="tram rail_urban rail rail_electric rail_fast ship" speed="8.29" length="14.33" shape="461.35,637.49 465.34,637.77 468.36,639.15 470.43,641.65 471.52,645.25"/>
    </edge>
    <edge id=":26_8" function="internal">
        <lane id=":26_8_0" index="0" disallow="tram rail_urban rail rail_electric rail_fast ship" speed="3.65" length="4.67" shape="461.35,637.49 462.60,638.21 463.05,638.99 462.70,639.81 461.55,640.68"/>
    </edge>
    <edge id=":27_0" function="internal">
        <lane id=":27_0_0" index="0" disallow="tram rail_urban rail rail_electric rail_fast ship" speed="3.65" length="4.67" shape="425.10,642.94 423.86,642.22 423.41,641.44 423.76,640.62 424.91,639.75"/>
    </edge>
    <edge id=":28_0" function="internal">
        <lane id=":28_0_0" index="0" disallow="tram rail_urban rail rail_electric rail_fast ship" speed="27.78" length="9.72" shape="201.82,832.97 204.20,831.77 205.32,829.89 206.43,828.00 208.82,826.80"/>
        <lane id=":28_0_1" index="1" disallow="tram rail_urban rail rail_electric rail_fast ship" speed="27.78" length="9.72" shape="202.40,836.12 204.78,834.92 205.90,833.03 207.01,831.15 209.40,829.95"/>
    </edge>
    <edge id=":29_0" function="internal">
        <lane id=":29_0_0" index="0" disallow="tram rail_urban rail rail_electric rail_fast ship" speed="27.78" length="8.00" shape="378.35,801.27 386.26,800.10"/>
        <lane id=":29_0_1" index="1" disallow="tram rail_urban rail rail_electric rail_fast ship" speed="27.78" length="8.00" shape="378.82,804.43 386.73,803.26"/>
    </edge>
    <edge id=":3_0" function="internal">
        <lane id=":3_0_0" index="0" disallow="tram rail_urban rail rail_electric rail_fast ship" speed="9.04" length="3.82" shape="248.59,798.40 248.84,799.50 249.11,800.23 249.55,800.88 250.29,801.73"/>
    </edge>
    <edge id=":3_1" function="internal">
        <lane id=":3_1_0" index="0" disallow="tram rail_urban rail rail_electric rail_fast ship" speed="22.22" length="3.59" shape="245.45,799.06 245.67,800.10 245.79,800.82 245.85,801.55 245.86,802.61"/>
    </edge>
    <edge id=":30_0" function="internal">
        <lane id=":30_0_0" index="0" disallow="tram rail_urban rail rail_electric rail_fast ship" speed="3.65" length="4.67" shape="477.01,682.33 476.40,683.64 475.67,684.15 474.82,683.87 473.85,682.80"/>
    </edge>
    <edge id=":31_0" function="internal">
        <lane id=":31_0_0" index="0" disallow="tram rail_urban rail rail_electric rail_fast ship" speed="3.71" length="4.64" shape="183.07,964.23 181.72,964.70 180.85,964.54 180.45,963.75 180.54,962.32"/>
    </edge>
    <edge id=":32_0" function="internal">
        <lane id=":32_0_0" index="0" disallow="tram rail_urban rail rail_electric rail_fast ship" speed="3.65" length="4.67" shape="646.64,239.62 646.77,238.19 647.28,237.46 648.18,237.43 649.45,238.10"/>
    </edge>
    <edge id=":33_0" function="internal">
        <lane id=":33_0_0" index="0" disallow="tram rail_urban rail rail_electric rail_fast ship" speed="6.74" length="9.50" shape="728.83,492.54 726.18,492.78 724.23,493.76 722.96,495.48 722.40,497.93"/>
    </edge>
    <edge id=":33_1" function="internal">
        <lane id=":33_1_0" index="0" disallow="tram rail_urban rail rail_electric rail_fast ship" speed="11.18" length="14.75" shape="728.83,492.54 714.05,491.68"/>
        <lane id=":33_1_1" index="1" disallow="tram rail_urban rail rail_electric rail_fast ship" speed="11.18" length="14.75" shape="728.97,489.34 714.29,488.49"/>
    </edge>
    <edge id=":33_3" function="internal">
        <lane id=":33_3_0" index="0" disallow="tram rail_urban rail rail_electric rail_fast ship" speed="8.61" length="3.88" shape="728.97,489.34 725.19,488.45"/>
    </edge>
    <edge id=":33_4" function="internal">
        <lane id=":33_4_0" index="0" disallow="tram rail_urban rail rail_electric rail_fast ship" speed="3.65" length="1.44" shape="728.97,489.34 727.80,488.49"/>
    </edge>
    <edge id=":33_18" function="internal">
        <lane id=":33_18_0" index="0" disallow="tram rail_urban rail rail_electric rail_fast ship" speed="8.61" length="13.17" shape="725.19,488.45 725.05,488.41 722.39,486.02 720.99,482.15 720.84,476.82"/>
    </edge>
    <edge id=":33_19" function="internal">
        <lane id=":33_19_0" index="0" disallow="tram rail_urban rail rail_electric rail_fast ship" speed="3.65" length="3.23" shape="727.80,488.49 727.44,487.67 727.87,486.89 729.10,486.14"/>
    </edge>
    <edge id=":33_5" function="internal">
        <lane id=":33_5_0" index="0" disallow="tram rail_urban rail rail_electric rail_fast ship" speed="6.43" length="9.03" shape="724.03,477.07 724.19,479.55 725.11,481.36 726.79,482.49 729.24,482.95"/>
    </edge>
    <edge id=":33_6" function="internal">
        <lane id=":33_6_0" index="0" disallow="tram rail_urban rail rail_electric rail_fast ship" speed="13.89" length="20.93" shape="724.03,477.07 722.40,497.93"/>
    </edge>
    <edge id=":33_7" function="internal">
        <lane id=":33_7_0" index="0" disallow="tram rail_urban rail rail_electric rail_fast ship" speed="8.71" length="16.98" shape="724.03,477.07 723.06,482.31 721.12,485.96 718.19,488.02 714.29,488.49"/>
    </edge>
    <edge id=":33_8" function="internal">
        <lane id=":33_8_0" index="0" disallow="tram rail_urban rail rail_electric rail_fast ship" speed="3.65" length="4.67" shape="724.03,477.07 723.13,478.20 722.31,478.54 721.54,478.07 720.84,476.82"/>
    </edge>
    <edge id=":33_9" function="internal">
        <lane id=":33_9_0" index="0" disallow="tram rail_urban rail rail_electric rail_fast ship" speed="6.56" length="9.18" shape="714.76,482.11 717.25,481.93 719.09,480.99 720.29,479.29 720.84,476.82"/>
    </edge>
    <edge id=":33_10" function="internal">
        <lane id=":33_10_0" index="0" disallow="tram rail_urban rail rail_electric rail_fast ship" speed="11.18" length="14.55" shape="714.76,482.11 729.24,482.95"/>
        <lane id=":33_10_1" index="1" disallow="tram rail_urban rail rail_electric rail_fast ship" speed="11.18" length="14.55" shape="714.53,485.30 729.10,486.14"/>
    </edge>
    <edge id=":33_12" function="internal">
        <lane id=":33_12_0" index="0" disallow="tram rail_urban rail rail_electric rail_fast ship" speed="8.67" length="3.48" shape="714.53,485.30 717.88,486.21"/>
    </edge>
    <edge id=":33_13" function="internal">
        <lane id=":33_13_0" index="0" disallow="tram rail_urban rail rail_electric rail_fast ship" speed="3.65" length="1.44" shape="714.53,485.30 715.66,486.18"/>
    </edge>
    <edge id=":33_20" function="internal">
        <lane id=":33_20_0" index="0" disallow="tram rail_urban rail rail_electric rail_fast ship" speed="8.67" length="13.39" shape="717.88,486.21 718.32,486.33 720.90,488.78 722.26,492.65 722.40,497.93"/>
    </edge>
    <edge id=":33_21" function="internal">
        <lane id=":33_21_0" index="0" disallow="tram rail_urban rail rail_electric rail_fast ship" speed="3.65" length="3.23" shape="715.66,486.18 716.00,487.01 715.55,487.78 714.29,488.49"/>
    </edge>
    <edge id=":33_14" function="internal">
        <lane id=":33_14_0" index="0" disallow="tram rail_urban rail rail_electric rail_fast ship" speed="6.50" length="9.03" shape="719.21,497.68 719.05,495.21 718.14,493.39 716.47,492.21 714.05,491.68"/>
    </edge>
    <edge id=":33_15" function="internal">
        <lane id=":33_15_0" index="0" disallow="tram rail_urban rail rail_electric rail_fast ship" speed="13.89" length="20.93" shape="719.21,497.68 720.84,476.82"/>
    </edge>
    <edge id=":33_16" function="internal">
        <lane id=":33_16_0" index="0" disallow="tram rail_urban rail rail_electric rail_fast ship" speed="8.85" length="17.11" shape="719.21,497.68 720.17,492.49 722.14,488.84 725.12,486.72 729.10,486.14"/>
    </edge>
    <edge id=":33_17" function="internal">
        <lane id=":33_17_0" index="0" disallow="tram rail_urban rail rail_electric rail_fast ship" speed="3.65" length="4.67" shape="719.21,497.68 720.10,496.55 720.93,496.21 721.69,496.67 722.40,497.93"/>
    </edge>
    <edge id=":34_0" function="internal">
        <lane id=":34_0_0" index="0" disallow="tram rail_urban rail rail_electric rail_fast ship" speed="16.70" length="13.65" shape="599.28,482.05 595.07,481.28 592.03,480.14 589.33,479.12 586.12,478.71"/>
    </edge>
    <edge id=":34_1" function="internal">
        <lane id=":34_1_0" index="0" disallow="tram rail_urban rail rail_electric rail_fast ship" speed="10.74" length="2.65" shape="599.54,478.86 597.22,478.06 597.07,477.94"/>
    </edge>
    <edge id=":34_2" function="internal">
        <lane id=":34_2_0" index="0" disallow="tram rail_urban rail rail_electric rail_fast ship" speed="3.65" length="1.44" shape="599.54,478.86 598.41,477.96"/>
    </edge>
    <edge id=":34_9" function="internal">
        <lane id=":34_9_0" index="0" disallow="tram rail_urban rail rail_electric rail_fast ship" speed="10.74" length="12.20" shape="597.07,477.94 594.80,476.06 592.27,472.83 589.63,468.40"/>
    </edge>
    <edge id=":34_10" function="internal">
        <lane id=":34_10_0" index="0" disallow="tram rail_urban rail rail_electric rail_fast ship" speed="3.65" length="3.23" shape="598.41,477.96 598.08,477.13 598.54,476.37 599.81,475.67"/>
    </edge>
    <edge id=":34_3" function="internal">
        <lane id=":34_3_0" index="0" disallow="tram rail_urban rail rail_electric rail_fast ship" speed="8.83" length="9.87" shape="592.45,466.89 593.97,469.19 595.74,470.88 597.78,471.98 600.07,472.48"/>
    </edge>