<?xml version='1.0' encoding='utf-8'?>
<additional>
	<vType id="CarDefault" accel="3.0" decel="6.0" length="5.0" minGap="2.5" maxSpeed="50.0" sigma="0.5" />
	<vehicle id="123_2.10" depart="25200.0" route="r0" type="CarDefault" departLane="best" departPos="random_free" departSpeed="max" arrivalPos="max" />
	<vehicle id="124_3.47" depart="25200.0" route="r1" type="CarDefault" departLane="best" departPos="random_free" departSpeed="max" arrivalPos="max" />
	<vehicle id="125_4.6" depart="25200.0" route="r2" type="CarDefault" departLane="best" departPos="random_free" departSpeed="max" arrivalPos="max" />
	<vehicle id="1396_1.64" depart="25200.0" route="r3" type="CarDefault" departLane="best" departPos="random_free" departSpeed="max" arrivalPos="max" />
	<vehicle id="1399_5.57" depart="25200.0" route="r4" type="CarDefault" departLane="best" departPos="random_free" departSpeed="max" arrivalPos="max" />
	<vehicle id="219_1.49" depart="25200.0" route="r5" type="CarDefault" departLane="best" departPos="random_free" departSpeed="max" arrivalPos="max" />
	<vehicle id="25_1.12" depart="25200.0" route="r6" type="CarDefault" departLane="best" departPos="random_free" departSpeed="max" arrivalPos="max" />
	<vehicle id="30_2.32" depart="25200.0" route="r7" type="CarDefault" departLane="best" departPos="random_free" departSpeed="max" arrivalPos="max" />
	<vehicle id="367_3.237" depart="25200.0" route="r8" type="CarDefault" departLane="best" departPos="random_free" departSpeed="max" arrivalPos="max" />
	<vehicle id="374_2.52" depart="25200.0" route="r9" type="CarDefault" departLane="best" departPos="random_free" departSpeed="max" arrivalPos="max" />
	<vehicle id="377_6.60" depart="25200.0" route="r10" type="CarDefault" departLane="best" departPos="random_free" departSpeed="max" arrivalPos="max" />
	<vehicle id="427_1.9" depart="25200.0" route="r11" type="CarDefault" departLane="best" departPos="random_free" departSpeed="max" arrivalPos="max" />
	<vehicle id="464_1.56" depart="25200.0" route="r12" type="CarDefault" departLane="best" departPos="random_free" departSpeed="max" arrivalPos="max" />
	<vehicle id="465_2.3" depart="25200.0" route="r13" type="CarDefault" departLane="best" departPos="random_free" departSpeed="max" arrivalPos="max" />
	<vehicle id="466_3.162" depart="25200.0" route="r14" type="CarDefault" departLane="best" departPos="random_free" departSpeed="max" arrivalPos="max" />
	<vehicle id="467_4.6" depart="25200.0" route="r15" type="CarDefault" departLane="best" departPos="random_free" departSpeed="max" arrivalPos="max" />
	<vehicle id="468_1.47" depart="25200.0" route="r16" type="CarDefault" departLane="best" departPos="random_free" departSpeed="max" arrivalPos="max" />
	<vehicle id="469_2.59" depart="25200.0" route="r17" type="CarDefault" departLane="best" departPos="random_free" departSpeed="max" arrivalPos="max" />
	<vehicle id="470_3.35" depart="25200.0" route="r18" type="CarDefault" departLane="best" departPos="random_free" departSpeed="max" arrivalPos="max" />
	<vehicle id="471_4.130" depart="25200.0" route="r19" type="CarDefault" departLane="best" departPos="random_free" departSpeed="max" arrivalPos="max" />
	<vehicle id="476_2.36" depart="25200.0" route="r20" type="CarDefault" departLane="best" departPos="random_free" departSpeed="max" arrivalPos="max" />
	<vehicle id="533_1.28" depart="25200.0" route="r21" type="CarDefault" departLane="best" departPos="random_free" departSpeed="max" arrivalPos="max" />
	<vehicle id="535_3.18" depart="25200.0" route="r22" type="CarDefault" departLane="best" departPos="random_free" departSpeed="max" arrivalPos="max" />
	<vehicle id="560_3.39" depart="25200.0" route="r23" type="CarDefault" departLane="best" departPos="random_free" departSpeed="max" arrivalPos="max" />
	<vehicle id="561_4.10" depart="25200.0" route="r24" type="CarDefault" departLane="best" departPos="random_free" departSpeed="max" arrivalPos="max" />
	<vehicle id="681_1.37" depart="25200.0" route="r25" type="CarDefault" departLane="best" departPos="random_free" departSpeed="max" arrivalPos="max" />
	<vehicle id="693_1.102" depart="25200.0" route="r26" type="CarDefault" departLane="best" departPos="random_free" departSpeed="max" arrivalPos="max" />
	<vehicle id="758_2.60" depart="25200.0" route="r27" type="CarDefault" departLane="best" departPos="random_free" departSpeed="max" arrivalPos="max" />
	<vehicle id="75_5.103" depart="25200.0" route="r28" type="CarDefault" departLane="best" departPos="random_free" departSpeed="max" arrivalPos="max" />
	<vehicle id="853_2.193" depart="25200.0" route="r29" type="CarDefault" departLane="best" departPos="random_free" departSpeed="max" arrivalPos="max" />
	<vehicle id="854_3.12" depart="25200.0" route="r30" type="CarDefault" departLane="best" departPos="random_free" departSpeed="max" arrivalPos="max" />
	<vehicle id="863_2.106" depart="25200.0" route="r31" type="CarDefault" departLane="best" departPos="random_free" departSpeed="max" arrivalPos="max" />
	<vehicle id="1274_2.23" depart="25200.0" route="r32" type="CarDefault" departLane="best" departPos="random_free" departSpeed="max" arrivalPos="max" />
	<vehicle id="318_7.46" depart="25200.0" route="r33" type="CarDefault" departLane="best" departPos="random_free" departSpeed="max" arrivalPos="max" />
	<vehicle id="104_2.78" depart="25200.0" route="r34" type="CarDefault" departLane="best" departPos="random_free" departSpeed="max" arrivalPos="max" />
	<vehicle id="434_5.8" depart="25200.0" route="r35" type="CarDefault" departLane="best" departPos="random_free" departSpeed="max" arrivalPos="max" />
	<vehicle id="1072_3.116" depart="25232.73" route="r36" type="CarDefault" departLane="best" departPos="random_free" departSpeed="max" arrivalPos="max" />
	<vehicle id="356_1.1068" depart="25240.0" route="r37" type="CarDefault" departLane="best" departPos="random_free" departSpeed="max" arrivalPos="max" />
	<vehicle id="466_3.163" depart="25240.0" route="r38" type="CarDefault" departLane="best" departPos="random_free" departSpeed="max" arrivalPos="max" />
	<vehicle id="471_4.131" depart="25240.0" route="r39" type="CarDefault" departLane="best" departPos="random_free" departSpeed="max" arrivalPos="max" />
	<vehicle id="863_2.107" depart="25240.0" route="r40" type="CarDefault" departLane="best" departPos="random_free" departSpeed="max" arrivalPos="max" />
	<vehicle id="853_2.194" depart="25245.0" route="r41" type="CarDefault" departLane="best" departPos="random_free" departSpeed="max" arrivalPos="max" />
	<vehicle id="1149_1.44" depart="25251.43" route="r42" type="CarDefault" departLane="best" departPos="random_free" departSpeed="max" arrivalPos="max" />
	<vehicle id="1396_1.65" depart="25260.0" route="r43" type="CarDefault" departLane="best" departPos="random_free" departSpeed="max" arrivalPos="max" />
	<vehicle id="468_1.48" depart="25260.0" route="r44" type="CarDefault" departLane="best" departPos="random_free" departSpeed="max" arrivalPos="max" />
	<vehicle id="477_3.98" depart="25260.0" route="r45" type="CarDefault" departLane="best" departPos="random_free" departSpeed="max" arrivalPos="max" />
	<vehicle id="693_1.103" depart="25260.0" route="r46" type="CarDefault" departLane="best" departPos="random_free" departSpeed="max" arrivalPos="max" />
	<vehicle id="367_3.240" depart="25263.53" route="r47" type="CarDefault" departLane="best" departPos="random_free" departSpeed="max" arrivalPos="max" />
	<vehicle id="756_2.195" depart="25265.45" route="r48" type="CarDefault" departLane="best" departPos="random_free" departSpeed="max" arrivalPos="max" />
	<vehicle id="1072_3.117" depart="25265.45" route="r56" type="CarDefault" departLane="best" departPos="random_free" departSpeed="max" arrivalPos="max" />
	<vehicle id="757_1.411" depart="25266.67" route="r49" type="CarDefault" departLane="best" departPos="random_free" departSpeed="max" arrivalPos="max" />
	<vehicle id="1151_3.41" depart="25272.0" route="r50" type="CarDefault" departLane="best" departPos="random_free" departSpeed="max" arrivalPos="max" />
	<vehicle id="219_1.50" depart="25272.0" route="r51" type="CarDefault" departLane="best" departPos="random_free" departSpeed="max" arrivalPos="max" />
	<vehicle id="464_1.57" depart="25272.0" route="r52" type="CarDefault" departLane="best" departPos="random_free" departSpeed="max" arrivalPos="max" />
	<vehicle id="469_2.60" depart="25272.0" route="r53" type="CarDefault" departLane="best" departPos="random_free" departSpeed="max" arrivalPos="max" />
	<vehicle id="667_1.256" depart="25272.0" route="r54" type="CarDefault" departLane="best" departPos="random_free" departSpeed="max" arrivalPos="max" />
	<vehicle id="668_5.260" depart="25272.0" route="r55" type="CarDefault" departLane="best" departPos="random_free" departSpeed="max" arrivalPos="max" />
	<vehicle id="681_1.38" depart="25272.0" route="r57" type="CarDefault" departLane="best" departPos="random_free" departSpeed="max" arrivalPos="max" />
	<vehicle id="466_3.164" depart="25280.0" route="r58" type="CarDefault" departLane="best" departPos="random_free" departSpeed="max" arrivalPos="max" />
	<vehicle id="471_4.132" depart="25280.0" route="r59" type="CarDefault" departLane="best" departPos="random_free" departSpeed="max" arrivalPos="max" />
	<vehicle id="863_2.108" depart="25280.0" route="r60" type="CarDefault" departLane="best" departPos="random_free" departSpeed="max" arrivalPos="max" />
	<vehicle id="367_3.241" depart="25284.71" route="r8" type="CarDefault" departLane="best" departPos="random_free" departSpeed="max" arrivalPos="max" />
	<vehicle id="853_2.195" depart="25290.0" route="r61" type="CarDefault" departLane="best" departPos="random_free" departSpeed="max" arrivalPos="max" />
	<vehicle id="1072_3.118" depart="25298.18" route="r62" type="CarDefault" departLane="best" departPos="random_free" departSpeed="max" arrivalPos="max" />
	<vehicle id="1149_1.45" depart="25302.86" route="r63" type="CarDefault" departLane="best" departPos="random_free" departSpeed="max" arrivalPos="max" />
	<vehicle id="1273_1.78" depart="25320.0" route="r64" type="CarDefault" departLane="best" departPos="random_free" departSpeed="max" arrivalPos="max" />
	<vehicle id="1396_1.66" depart="25320.0" route="r65" type="CarDefault" departLane="best" departPos="random_free" departSpeed="max" arrivalPos="max" />
	<vehicle id="23_3.27" depart="25320.0" route="r66" type="CarDefault" departLane="best" departPos="random_free" departSpeed="max" arrivalPos="max" />
	<vehicle id="315_1.65" depart="25320.0" route="r67" type="CarDefault" departLane="best" departPos="random_free" departSpeed="max" arrivalPos="max" />
	<vehicle id="357_2.29" depart="25320.0" route="r68" type="CarDefault" departLane="best" departPos="random_free" departSpeed="max" arrivalPos="max" />
	<vehicle id="466_3.165" depart="25320.0" route="r69" type="CarDefault" departLane="best" departPos="random_free" departSpeed="max" arrivalPos="max" />
	<vehicle id="468_1.49" depart="25320.0" route="r70" type="CarDefault" departLane="best" departPos="random_free" departSpeed="max" arrivalPos="max" />
	<vehicle id="470_3.36" depart="25320.0" route="r71" type="CarDefault" departLane="best" departPos="random_free" departSpeed="max" arrivalPos="max" />
	<vehicle id="471_4.133" depart="25320.0" route="r72" type="CarDefault" departLane="best" departPos="random_free" departSpeed="max" arrivalPos="max" />
	<vehicle id="477_3.99" depart="25320.0" route="r73" type="CarDefault" departLane="best" departPos="random_free" departSpeed="max" arrivalPos="max" />
	<vehicle id="693_1.104" depart="25320.0" route="r74" type="CarDefault" departLane="best" departPos="random_free" departSpeed="max" arrivalPos="max" />
	<vehicle id="862_1.30" depart="25320.0" route="r75" type="CarDefault" departLane="best" departPos="random_free" departSpeed="max" arrivalPos="max" />
	<vehicle id="863_2.109" depart="25320.0" route="r76" type="CarDefault" departLane="best" departPos="random_free" departSpeed="max" arrivalPos="max" />
	<vehicle id="8_1.233" depart="25328.57" route="r77" type="CarDefault" departLane="best" departPos="random_free" departSpeed="max" arrivalPos="max" />
	<vehicle id="1072_3.119" depart="25330.91" route="r78" type="CarDefault" departLane="best" departPos="random_free" departSpeed="max" arrivalPos="max" />
	<vehicle id="12_1.158" depart="25330.91" route="r79" type="CarDefault" departLane="best" departPos="random_free" departSpeed="max" arrivalPos="max" />
	<vehicle id="757_1.416" depart="25333.33" route="r80" type="CarDefault" departLane="best" departPos="random_free" departSpeed="max" arrivalPos="max" />
	<vehicle id="1151_3.42" depart="25344.0" route="r81" type="CarDefault" departLane="best" departPos="random_free" departSpeed="max" arrivalPos="max" />
	<vehicle id="1399_5.59" depart="25344.0" route="r82" type="CarDefault" departLane="best" departPos="random_free" departSpeed="max" arrivalPos="max" />
	<vehicle id="365_1.82" depart="25344.0" route="r83" type="CarDefault" departLane="best" departPos="random_free" departSpeed="max" arrivalPos="max" />
	<vehicle id="464_1.58" depart="25344.0" route="r84" type="CarDefault" departLane="best" departPos="random_free" departSpeed="max" arrivalPos="max" />
	<vehicle id="469_2.61" depart="25344.0" route="r85" type="CarDefault" departLane="best" departPos="random_free" departSpeed="max" arrivalPos="max" />
	<vehicle id="668_5.261" depart="25344.0" route="r86" type="CarDefault" departLane="best" departPos="random_free" departSpeed="max" arrivalPos="max" />
	<vehicle id="681_1.39" depart="25344.0" route="r87" type="CarDefault" departLane="best" departPos="random_free" departSpeed="max" arrivalPos="max" />
	<vehicle id="314_6.98" depart="25354.29" route="r88" type="CarDefault" departLane="best" departPos="random_free" departSpeed="max" arrivalPos="max" />
	<vehicle id="755_1.98" depart="25354.29" route="r89" type="CarDefault" departLane="best" departPos="random_free" departSpeed="max" arrivalPos="max" />
	<vehicle id="11_4.124" depart="25360.0" route="r90" type="CarDefault" departLane="best" departPos="random_free" departSpeed="max" arrivalPos="max" />
	<vehicle id="466_3.166" depart="25360.0" route="r91" type="CarDefault" departLane="best" departPos="random_free" departSpeed="max" arrivalPos="max" />
	<vehicle id="471_4.134" depart="25360.0" route="r92" type="CarDefault" departLane="best" departPos="random_free" departSpeed="max" arrivalPos="max" />
	<vehicle id="757_1.418" depart="25360.0" route="r93" type="CarDefault" departLane="best" departPos="random_free" departSpeed="max" arrivalPos="max" />
	<vehicle id="863_2.110" depart="25360.0" route="r76" type="CarDefault" departLane="best" departPos="random_free" departSpeed="max" arrivalPos="max" />
	<vehicle id="760_6.159" depart="25363.64" route="r94" type="CarDefault" departLane="best" departPos="random_free" departSpeed="max" arrivalPos="max" />
	<vehicle id="367_3.245" depart="25369.41" route="r95" type="CarDefault" departLane="best" departPos="random_free" departSpeed="max" arrivalPos="max" />
	<vehicle id="124_3.48" depart="25380.0" route="r96" type="CarDefault" departLane="best" departPos="random_free" departSpeed="max" arrivalPos="max" />
	<vehicle id="125_4.7" depart="25380.0" route="r97" type="CarDefault" departLane="best" departPos="random_free" departSpeed="max" arrivalPos="max" />
	<vehicle id="1396_1.67" depart="25380.0" route="r98" type="CarDefault" departLane="best" departPos="random_free" departSpeed="max" arrivalPos="max" />
	<vehicle id="311_1.19" depart="25380.0" route="r99" type="CarDefault" departLane="best" departPos="random_free" departSpeed="max" arrivalPos="max" />
	<vehicle id="358_1.25" depart="25380.0" route="r100" type="CarDefault" departLane="best" departPos="random_free" departSpeed="max" arrivalPos="max" />
	<vehicle id="465_2.4" depart="25380.0" route="r101" type="CarDefault" departLane="best" departPos="random_free" departSpeed="max" arrivalPos="max" />
	<vehicle id="468_1.50" depart="25380.0" route="r102" type="CarDefault" departLane="best" departPos="random_free" departSpeed="max" arrivalPos="max" />
	<vehicle id="477_3.100" depart="25380.0" route="r103" type="CarDefault" departLane="best" departPos="random_free" departSpeed="max" arrivalPos="max" />
	<vehicle id="478_4.43" depart="25380.0" route="r104" type="CarDefault" departLane="best" departPos="random_free" departSpeed="max" arrivalPos="max" />
	<vehicle id="535_3.19" depart="25380.0" route="r105" type="CarDefault" departLane="best" departPos="random_free" departSpeed="max" arrivalPos="max" />
	<vehicle id="694_3.21" depart="25380.0" route="r106" type="CarDefault" departLane="best" departPos="random_free" departSpeed="max" arrivalPos="max" />
	<vehicle id="758_2.61" depart="25380.0" route="r107" type="CarDefault" departLane="best" departPos="random_free" departSpeed="max" arrivalPos="max" />
	<vehicle id="1072_3.121" depart="25396.36" route="r108" type="CarDefault" departLane="best" departPos="random_free" departSpeed="max" arrivalPos="max" />
	<vehicle id="466_3.167" depart="25400.0" route="r109" type="CarDefault" departLane="best" departPos="random_free" departSpeed="max" arrivalPos="max" />
	<vehicle id="471_4.135" depart="25400.0" route="r110" type="CarDefault" departLane="best" departPos="random_free" departSpeed="max" arrivalPos="max" />
	<vehicle id="757_1.421" depart="25400.0" route="r111" type="CarDefault" departLane="best" departPos="random_free" departSpeed="max" arrivalPos="max" />
	<vehicle id="863_2.111" depart="25400.0" route="r112" type="CarDefault" departLane="best" departPos="random_free" departSpeed="max" arrivalPos="max" />
	<vehicle id="1149_1.47" depart="25405.71" route="r113" type="CarDefault" departLane="best" departPos="random_free" departSpeed="max" arrivalPos="max" />
	<vehicle id="755_1.99" depart="25405.71" route="r114" type="CarDefault" departLane="best" departPos="random_free" departSpeed="max" arrivalPos="max" />
	<vehicle id="704_1.161" depart="25410.0" route="r115" type="CarDefault" departLane="best" departPos="random_free" departSpeed="max" arrivalPos="max" />
	<vehicle id="105_3.48" depart="25416.0" route="r116" type="CarDefault" departLane="best" departPos="random_free" departSpeed="max" arrivalPos="max" />
	<vehicle id="365_1.83" depart="25416.0" route="r117" type="CarDefault" departLane="best" departPos="random_free" departSpeed="max" arrivalPos="max" />
	<vehicle id="464_1.59" depart="25416.0" route="r118" type="CarDefault" departLane="best" departPos="random_free" departSpeed="max" arrivalPos="max" />
	<vehicle id="469_2.62" depart="25416.0" route="r119" type="CarDefault" departLane="best" departPos="random_free" departSpeed="max" arrivalPos="max" />
	<vehicle id="667_1.258" depart="25416.0" route="r120" type="CarDefault" departLane="best" departPos="random_free" departSpeed="max" arrivalPos="max" />
	<vehicle id="668_5.262" depart="25416.0" route="r121" type="CarDefault" departLane="best" departPos="random_free" departSpeed="max" arrivalPos="max" />
	<vehicle id="681_1.40" depart="25416.0" route="r122" type="CarDefault" departLane="best" departPos="random_free" departSpeed="max" arrivalPos="max" />
	<vehicle id="1076_1.117" depart="25440.0" route="r123" type="CarDefault" departLane="best" departPos="random_free" departSpeed="max" arrivalPos="max" />
	<vehicle id="1273_1.79" depart="25440.0" route="r124" type="CarDefault" departLane="best" departPos="random_free" departSpeed="max" arrivalPos="max" />
	<vehicle id="1396_1.68" depart="25440.0" route="r125" type="CarDefault" departLane="best" departPos="random_free" departSpeed="max" arrivalPos="max" />
	<vehicle id="28_4.18" depart="25440.0" route="r126" type="CarDefault" departLane="best" departPos="random_free" departSpeed="max" arrivalPos="max" />
	<vehicle id="374_2.56" depart="25440.0" route="r127" type="CarDefault" departLane="best" departPos="random_free" departSpeed="max" arrivalPos="max" />
	<vehicle id="466_3.168" depart="25440.0" route="r128" type="CarDefault" departLane="best" departPos="random_free" departSpeed="max" arrivalPos="max" />
	<vehicle id="468_1.51" depart="25440.0" route="r129" type="CarDefault" departLane="best" departPos="random_free" departSpeed="max" arrivalPos="max" />
	<vehicle id="470_3.37" depart="25440.0" route="r130" type="CarDefault" departLane="best" departPos="random_free" departSpeed="max" arrivalPos="max" />
	<vehicle id="471_4.136" depart="25440.0" route="r131" type="CarDefault" departLane="best" departPos="random_free" departSpeed="max" arrivalPos="max" />
	<vehicle id="477_3.101" depart="25440.0" route="r132" type="CarDefault" departLane="best" departPos="random_free" departSpeed="max" arrivalPos="max" />
	<vehicle id="533_1.30" depart="25440.0" route="r133" type="CarDefault" departLane="best" departPos="random_free" departSpeed="max" arrivalPos="max" />
	<vehicle id="1149_1.48" depart="25457.14" route="r134" type="CarDefault" departLane="best" departPos="random_free" departSpeed="max" arrivalPos="max" />
	<vehicle id="1072_3.123" depart="25461.82" route="r135" type="CarDefault" departLane="best" departPos="random_free" departSpeed="max" arrivalPos="max" />
	<vehicle id="12_1.162" depart="25461.82" route="r79" type="CarDefault" departLane="best" departPos="random_free" departSpeed="max" arrivalPos="max" />
	<vehicle id="1275_3.252" depart="25464.0" route="r136" type="CarDefault" departLane="best" departPos="random_free" departSpeed="max" arrivalPos="max" />
	<vehicle id="240_2.33" depart="25470.0" route="r137" type="CarDefault" departLane="best" departPos="random_free" departSpeed="max" arrivalPos="max" />
	<vehicle id="312_3.56" depart="25470.0" route="r138" type="CarDefault" departLane="best" departPos="random_free" departSpeed="max" arrivalPos="max" />
	<vehicle id="377_6.63" depart="25470.0" route="r139" type="CarDefault" departLane="best" departPos="random_free" departSpeed="max" arrivalPos="max" />
	<vehicle id="853_2.199" depart="25470.0" route="r140" type="CarDefault" departLane="best" departPos="random_free" departSpeed="max" arrivalPos="max" />
	<vehicle id="356_1.1074" depart="25480.0" route="r141" type="CarDefault" departLane="best" departPos="random_free" departSpeed="max" arrivalPos="max" />
	<vehicle id="466_3.169" depart="25480.0" route="r142" type="CarDefault" departLane="best" departPos="random_free" departSpeed="max" arrivalPos="max" />
	<vehicle id="471_4.137" depart="25480.0" route="r143" type="CarDefault" departLane="best" departPos="random_free" departSpeed="max" arrivalPos="max" />
	<vehicle id="757_1.427" depart="25480.0" route="r144" type="CarDefault" departLane="best" departPos="random_free" departSpeed="max" arrivalPos="max" />
	<vehicle id="1151_3.44" depart="25488.0" route="r145" type="CarDefault" departLane="best" departPos="random_free" departSpeed="max" arrivalPos="max" />
	<vehicle id="1275_3.253" depart="25488.0" route="r146" type="CarDefault" departLane="best" departPos="random_free" departSpeed="max" arrivalPos="max" />
	<vehicle id="464_1.60" depart="25488.0" route="r147" type="CarDefault" departLane="best" departPos="random_free" departSpeed="max" arrivalPos="max" />
	<vehicle id="469_2.63" depart="25488.0" route="r148" type="CarDefault" departLane="best" departPos="random_free" departSpeed="max" arrivalPos="max" />
	<vehicle id="476_2.40" depart="25488.0" route="r149" type="CarDefault" departLane="best" departPos="random_free" departSpeed="max" arrivalPos="max" />
	<vehicle id="667_1.259" depart="25488.0" route="r150" type="CarDefault" departLane="best" departPos="random_free" departSpeed="max" arrivalPos="max" />
	<vehicle id="668_5.263" depart="25488.0" route="r151" type="CarDefault" departLane="best" departPos="random_free" departSpeed="max" arrivalPos="max" />
	<vehicle id="681_1.41" depart="25488.0" route="r152" type="CarDefault" departLane="best" departPos="random_free" departSpeed="max" arrivalPos="max" />
	<vehicle id="815_4.44" depart="25488.0" route="r153" type="CarDefault" departLane="best" departPos="random_free" departSpeed="max" arrivalPos="max" />
	<vehicle id="374_2.57" depart="25500.0" route="r154" type="CarDefault" departLane="best" departPos="random_free" departSpeed="max" arrivalPos="max" />
	<vehicle id="468_1.52" depart="25500.0" route="r155" type="CarDefault" departLane="best" departPos="random_free" departSpeed="max" arrivalPos="max" />
	<vehicle id="1149_1.49" depart="25508.57" route="r156" type="CarDefault" departLane="best" departPos="random_free" departSpeed="max" arrivalPos="max" />
	<vehicle id="853_2.200" depart="25515.0" route="r30" type="CarDefault" departLane="best" departPos="random_free" departSpeed="max" arrivalPos="max" />
	<vehicle id="466_3.170" depart="25520.0" route="r157" type="CarDefault" departLane="best" departPos="random_free" departSpeed="max" arrivalPos="max" />
	<vehicle id="471_4.138" depart="25520.0" route="r158" type="CarDefault" departLane="best" departPos="random_free" departSpeed="max" arrivalPos="max" />
	<vehicle id="757_1.430" depart="25520.0" route="r159" type="CarDefault" departLane="best" departPos="random_free" departSpeed="max" arrivalPos="max" />
	<vehicle id="1275_3.255" depart="25536.0" route="r160" type="CarDefault" departLane="best" departPos="random_free" departSpeed="max" arrivalPos="max" />
	<vehicle id="1030_2.23" depart="25560.0" route="r161" type="CarDefault" departLane="best" departPos="random_free" departSpeed="max" arrivalPos="max" />
	<vehicle id="103_1.85" depart="25560.0" route="r162" type="CarDefault" departLane="best" departPos="random_free" departSpeed="max" arrivalPos="max" />
	<vehicle id="1149_1.50" depart="25560.0" route="r113" type="CarDefault" departLane="best" departPos="random_free" departSpeed="max" arrivalPos="max" />
	<vehicle id="1151_3.45" depart="25560.0" route="r163" type="CarDefault" departLane="best" departPos="random_free" departSpeed="max" arrivalPos="max" />
	<vehicle id="1152_4.3" depart="25560.0" route="r164" type="CarDefault" departLane="best" departPos="random_free" departSpeed="max" arrivalPos="max" />
	<vehicle id="123_2.11" depart="25560.0" route="r165" type="CarDefault" departLane="best" departPos="random_free" departSpeed="max" arrivalPos="max" />
	<vehicle id="124_3.49" depart="25560.0" route="r166" type="CarDefault" departLane="best" departPos="random_free" departSpeed="max" arrivalPos="max" />
	<vehicle id="125_4.8" depart="25560.0" route="r167" type="CarDefault" departLane="best" departPos="random_free" departSpeed="max" arrivalPos="max" />
	<vehicle id="1360_1.52" depart="25560.0" route="r168" type="CarDefault" departLane="best" departPos="random_free" departSpeed="max" arrivalPos="max" />
	<vehicle id="219_1.54" depart="25560.0" route="r169" type="CarDefault" departLane="best" departPos="random_free" departSpeed="max" arrivalPos="max" />
	<vehicle id="22_2.27" depart="25560.0" route="r170" type="CarDefault" departLane="best" departPos="random_free" departSpeed="max" arrivalPos="max" />
	<vehicle id="239_1.4" depart="25560.0" route="r171" type="CarDefault" departLane="best" departPos="random_free" departSpeed="max" arrivalPos="max" />
	<vehicle id="240_2.34" depart="25560.0" route="r172" type="CarDefault" departLane="best" departPos="random_free" departSpeed="max" arrivalPos="max" />
	<vehicle id="27_3.22" depart="25560.0" route="r173" type="CarDefault" departLane="best" departPos="random_free" departSpeed="max" arrivalPos="max" />
	<vehicle id="312_3.57" depart="25560.0" route="r174" type="CarDefault" departLane="best" departPos="random_free" departSpeed="max" arrivalPos="max" />
	<vehicle id="357_2.31" depart="25560.0" route="r175" type="CarDefault" departLane="best" departPos="random_free" departSpeed="max" arrivalPos="max" />
	<vehicle id="358_1.26" depart="25560.0" route="r176" type="CarDefault" departLane="best" departPos="random_free" departSpeed="max" arrivalPos="max" />
	<vehicle id="360_4.23" depart="25560.0" route="r177" type="CarDefault" departLane="best" departPos="random_free" departSpeed="max" arrivalPos="max" />
	<vehicle id="367_3.254" depart="25560.0" route="r178" type="CarDefault" departLane="best" departPos="random_free" departSpeed="max" arrivalPos="max" />
	<vehicle id="368_4.11" depart="25560.0" route="r179" type="CarDefault" departLane="best" departPos="random_free" departSpeed="max" arrivalPos="max" />
	<vehicle id="374_2.58" depart="25560.0" route="r180" type="CarDefault" departLane="best" departPos="random_free" departSpeed="max" arrivalPos="max" />
	<vehicle id="377_6.64" depart="25560.0" route="r181" type="CarDefault" departLane="best" departPos="random_free" departSpeed="max" arrivalPos="max" />
	<vehicle id="428_2.5" depart="25560.0" route="r182" type="CarDefault" departLane="best" departPos="random_free" departSpeed="max" arrivalPos="max" />
	<vehicle id="431_2.40" depart="25560.0" route="r183" type="CarDefault" departLane="best" departPos="random_free" departSpeed="max" arrivalPos="max" />
	<vehicle id="464_1.61" depart="25560.0" route="r14" type="CarDefault" departLane="best" departPos="random_free" departSpeed="max" arrivalPos="max" />
	<vehicle id="465_2.5" depart="25560.0" route="r184" type="CarDefault" departLane="best" departPos="random_free" departSpeed="max" arrivalPos="max" />
	<vehicle id="466_3.171" depart="25560.0" route="r185" type="CarDefault" departLane="best" departPos="random_free" departSpeed="max" arrivalPos="max" />
	<vehicle id="467_4.7" depart="25560.0" route="r186" type="CarDefault" departLane="best" departPos="random_free" departSpeed="max" arrivalPos="max" />
	<vehicle id="468_1.53" depart="25560.0" route="r187" type="CarDefault" departLane="best" departPos="random_free" departSpeed="max" arrivalPos="max" />
	<vehicle id="469_2.64" depart="25560.0" route="r59" type="CarDefault" departLane="best" departPos="random_free" departSpeed="max" arrivalPos="max" />
	<vehicle id="470_3.38" depart="25560.0" route="r188" type="CarDefault" departLane="best" departPos="random_free" departSpeed="max" arrivalPos="max" />