<?xml version='1.0' encoding='utf-8'?>
<routes>
	<route id="r0" edges="-3791031#3 3791034#0 30789748 4925959#0 128946815#1 128946815#2 128946815#4 128946815#6 128946815#8 4934599#0 63844804 63844803#0 4926004#0 129068838 370154352#0 370154352#1 365945819#0 365945819#1 110445434 110445437 156375819#0 405573991 9084582 128521422 -317312599#3 -317312599#2 -128521421#1 -128521563#1 110403205#0" />
	<route id="r1" edges="-3791031#3 3791034#0 30789748 4925959#0 128946815#1 128946815#2 128946815#4 128946815#6 128946815#8 4934599#0 63844804 63844803#0 4926004#0 129068838 370154352#0 370154352#1 -26452026#2 -26452026#1 26452028#0 26452028#1" />
	<route id="r2" edges="-3791031#3 3791034#0 30789748 4074529#0 4078064#0 8692149#0 4475729 -4475730 2294384#0 2110728#0 38023640 4287348#1 -525228766#5 -525228766#2 -525228766#0 4628794#0 4628794#3 398224850#0 4628797#0 228373561 228373543#0 228373543#1 -593087259#1" />
	<route id="r3" edges="-129217471#2 -129217478#2 37691371 -151364#1 4934683 -4825323#1 -4825323#0 362967236#0 362967236#1 61717563#1 61717563#2 394744908#0 394744908#1 -362967234#1 -362967234#0 -38554251 -327805506 -4926110#2 -4926110#1 -128946815#1 -4925959#1 -30789748 -3791034#1 4074528#0 125872847#0 3792428 3792427#0 52879956 357012332#0 357012332#1 -53750892#4 -523892327#0" />
	<route id="r4" edges="-129217471#2 -129217478#2 37691371 -151364#1 4934683 -4825323#1 -4825323#0 362967236#0 362967236#1 30466178 48964316 38532081" />
	<route id="r5" edges="631925364#3 23719580#0 525228766#0 525228766#1 525228766#3 375778079#1 4847328#0 612719558 -4475729 -8692149#1 -4078064#3 -4074529#2 -30789748 4825310#0 4825310#3 -9186547#14 -375758262#1 25325810#0 -245076120" />
	<route id="r6" edges="547144822#0 230483152#0 4475731 -8692149#1 -4078064#3 -4074529#2 -30789748 4825310#0 4825310#3 4825310#4 4829640 42879971 38574544#0 38574544#2 38554251 362967234#0 362967234#1 394744910 -61717563#4 -61717563#1 -61717563#0 -362967236#0 4825323#0 4825323#1 -4934683 151364#0 46160696#0 37690117 46160695#1 -282243995#2 -44668398#2 -4472600#2 -44658727#10 -44658727#9 -44658727#7 -44658727#6 -44658727#4 -44658727#2 -44658727#1 -44658727#0" />
	<route id="r7" edges="-8111025 -4934593 -14041596#2 -7977647#1 -7977648#3 -7977648#2 -7977648#1 -260607183#1 -153341562 -362967235#3 4934596#0 4934596#1 4934596#2 394744910 -61717563#4 -61717563#1 -61717563#0 -362967236#0 4825323#0 4825323#1 -4934683 151364#0 46160696#0 37690117 153340545#0 -4385407#1 -4385407#0 -228276373#2 4934681#0 -40047164#1 13998367" />
	<route id="r8" edges="368505008#3 6145835#0 6145835#1 128521563#0 128521563#1 128521421#0 -9084588#2 -9084588#1 -128521564 20834536 -365945819#1 -365945819#0 -370154352#1 -370154352#0 -129068838 -4926004#2 -63844803#0 -317312608 -4934599#2 -128946815#10 -128946815#7 -128946815#4 -128946815#2 4926110#0 4926110#2 4926110#3 -38532082#1 113549155#1 38265426#0 38532080" />
	<route id="r9" edges="128946815#8 -260607183#1 -153341562 -362967235#3 4934596#0 4934596#1 4934596#2 394744910 -61717563#4 -61717563#1 -61717563#0 -362967236#0 4825323#0 4825323#1 -4934683 151364#0 46160696#0 37690117 46160695#1 12341245#2 59183296 240818350#0 256024070#0 37096473#0 44668629#0 4834963#0 4834963#1 24600987#1 481221028#0 -30047549#2 -30047549#1 -30047549#0" />
	<route id="r10" edges="128946815#8 -260607183#1 -153341562 -362967235#3 4934596#0 4934596#1 4934596#2 394744910 -61717563#4 -61717563#1 -61717563#0 -362967236#0 4825323#0 4825323#1 37721078#7 37721078#8 37721078#10 -74073875#2" />
	<route id="r11" edges="4926004#0 4934446#0 4934446#2 -10575471#2 -10575471#1 -10575471#0 -4934446#0 -4926004#2 -63844803#0 -317312608 -4934599#2 -128946815#10 -128946815#7 -128946815#4 -128946815#2 -128946815#1 -72097208#9 -72097208#4 -72097208#2 -10575479#0" />
	<route id="r12" edges="372477029 37721078#0 129217467#0 -129217476#2 38574544#0 38574544#2 38554251 362967234#0 362967234#1 -4934596#2 -4934596#1 -4934596#0 362967235#0 153341562 10577138#1 4926000#0 317312602#1 317312602#2 10577136 4934454 50502870#1 50502870#2" />
	<route id="r13" edges="372477029 37721078#0 129217467#0 -129217476#2 -42879971 -4829640 -4825310#5 -4825310#3 -4825310#2 30789748 4074529#0 4078064#0 8692149#0 4475729 -4475730 2294384#0 4472590#0 37721356#0 4078079#1 38192817 gneE51 gneE49 532427445#0 77616869#0 8080823#0 8384431#0 48455137#0 48455143 48460623#2" />
	<route id="r14" edges="372477029 -4385390#3 -4385390#2 4825324#0 151364#0 46160696#0 37690117 46160695#1 -282243995#2 -44668398#2 -4472600#2 -44658727#10 -44658727#9 -44658727#7 -44658727#6 -44658727#4 -44658727#2 -44658727#1 -44658727#0 -636864248 -37866820 -520012239#1 -4263428#5 -138406903#1 30454632#0 30454635 37720965#0 37720965#1 502143950 -30454726#1 -30454726#0 33466813" />
	<route id="r15" edges="372477029 -4385390#3 -4385390#2 4825324#0 4934683 -4825323#1 -4825323#0 362967236#0 113552216#0 113552216#2" />
	<route id="r16" edges="4934683 -4825323#1 -4825323#0 362967236#0 362967236#1 61717563#1 61717563#2 394744908#0 289876870 -4934596#0 362967235#0 153341562 10577138#1 4926000#0 317312602#1 317312602#2 -4934446#6 -4934446#2 -4934446#0 129068838 370154352#0 370154352#1 365945819#0 365945819#1 110445434 110445440 20834534#4 128521564 317312609" />
	<route id="r17" edges="4934683 -4825323#1 -405546346 405546346 4825323#1 -4934683 151364#0 46160696#0 37690117 46160695#1 -282243995#2 -44668398#2 -4472600#2 -44658727#10 -44658727#9 -44658727#7 -44658727#6 -44658727#4 -44658727#2 -44658727#1 -44658727#0 -636864248 -37866820 -520012239#1 -4263428#5 -4263428#2 -4263428#1 -547766101#3 -547766101#2 -547766101#0 306917254 -128396774#7" />
	<route id="r18" edges="4934683 -4825323#1 -4825323#0 362967236#0 362967236#1 61717563#1 61717563#2 394744908#0 289876870 -4934596#0 362967235#0 153341562 10577138#1 4926000#0 317312602#1 317312602#2 -4934446#6 -4934446#2 -26452027#9 84017574" />
	<route id="r19" edges="4934683 -4825323#1 -405546346 405546346 4825323#1 -4934683 151364#0 46160696#0 37690117 46160695#1 -282243995#2 -44668398#2 -4472600#2 -44658727#10 -44658727#9 -44658727#7 -44658727#6 -44658727#4 -44658727#2 -44658727#1 -44658727#0 -636864248 -37866820 13904645#0 13904645#1 13904645#2 13904675#0 13904651" />
	<route id="r20" edges="372838324#0 13989314#0 13989314#1 4825341#1 4825341#2 3791207#0 3791207#1 372284311 362967237#4 -38574621#1 -38574621#0 -282317511 -4825317#2 372284307#0 4829640 42879971 38574544#0 38574544#2 -327805506 -38574542#2" />
	<route id="r21" edges="317312610 -50502869#9 48996163 -48996163 50502869#9 -119860728#2 -4934627 -37721078#10 -37721078#9 -37721078#7 -4934683 151364#0 46160696#0 37690117 46160695#1 -282243995#2 -44668398#2 -4472600#2 -44658727#10 -44658727#9 -44658727#7 -44658727#6 -44658727#4 -44658727#2 45530929#0 45530924#0 45530925" />
	<route id="r22" edges="317312610 -50502869#9 48996163 -48996163 50502869#9 -119860728#2 -4934627 -37721078#10 -37721078#9 -37721078#7 -4934683 151364#0 46160696#0 37690117 46160695#1 -282243995#2 -44668398#2 -4472600#2 -44658727#10 -44658727#9 -44658727#7 -44658727#6 -44658727#4 -44658727#2 -44658727#1 -44658727#0 -636864248 -354359921#2 -354359922 520012241#0 13904650#0" />
	<route id="r23" edges="22977599#0 -44668629#2 -37096473#3 -256024070#1 -240818350#3 59183292 -12341245#2 34855953 45755442#1 -46160696#2 -151364#1 4934683 -4825323#1 -4825323#0 362967236#0 362967236#1 61717563#1 61717563#2 394744908#0 289876870 -4934596#0 362967235#0 153341562 10577138#1 4926000#0 317312602#1 317312602#2 -4934446#6 -4934446#2 -4934446#0 -4934444#6 -4934444#5 -4934444#4 -4934444#2 147463637#0 -38864103" />
	<route id="r24" edges="22977599#0 -44668629#2 -37096473#3 -256024070#1 -240818350#3 59183292 -12341245#2 34855953 45755442#1 -46160696#2 -151364#1 4934683 -4825323#1 -4825323#0 362967236#0 362967236#1 61717563#1 61717563#2 394744908#0 394744908#1 -362967234#1 -362967234#0 -38554251 -327805506 -4926110#2 -4926110#1 128946815#2 128946815#4 128946815#6 128946815#8 7977648#0 7977648#2 7977648#3 -7415911#3" />
	<route id="r25" edges="394744908#1 -362967234#1 -362967234#0 -38554251 -327805506 -4926110#2 -4926110#1 128946815#2 128946815#4 128946815#6 128946815#8 4934599#0 63844804 63844803#0 4926004#0 129068838 370154352#0 370154352#1 365945819#0 365945819#1 110445434 110445437 156375819#0 405573991 9084582" />
	<route id="r26" edges="26545993#0 -3791031#3 3791034#0 30789748 4074529#0 4078064#0 372223883#0 372223883#3 372223883#7 14041596#1 4934592 8111025 -145571187 -31561867#1 -23501248#4 38918794#0" />
	<route id="r27" edges="3787951#0 gneE65 55333288#1 55333288#4 4934681#0 4934681#1 3791207#0 3791207#1 372284311 362967237#4 -38574621#1 -38574621#0 -282317511 -4825317#2 372284307#0 -4825310#5 -4825310#3 -4825310#2 30789748 4074529#0 4078064#0 372223883#0 378175982#0 10575468#0" />
	<route id="r28" edges="4628790 59416359#0 4628795#0 631925364#3 23719580#0 525228766#0 525228766#1 525228766#3 375778079#1 4847328#0 612719558 -4475729 -8692149#1 -4078064#3 -4074529#2 -30789748 4825310#0 -13878162#3" />
	<route id="r29" edges="-53750892#4 532435056#1 532435057#0 26545993#0 -3791031#3 3791034#0 30789748 4074529#0 4078064#0 372223883#0 372223883#3 372223883#7 14041596#1 4934592 8111025 -145571187 -7988564#2 -7988564#1 156375816#1 156375816#3 -4287395#4 -4287395#1 38239418#0 658599935#0 7919276#5 7919276#6" />
	<route id="r30" edges="-53750892#4 532435056#1 532435057#0 26545993#0 -3791031#3 3791034#0 30789748 4074529#0 4078064#0 372223883#0 372223883#3 372223883#7 14041596#1 4934592 8111025 -145571187 -7988564#2 -7988564#1 238740929 317312606 128521557 -110403089#1" />
	<route id="r31" edges="4825341#2 3791207#0 3791207#1 372284311 362967237#4 -38574621#1 -38574621#0 -282317511 -4825317#2 372284307#0 -4825310#5 -4825310#3 -4825310#2 30789748 4074529#0 4078064#0 8692149#0 4475729 -4475730 2294384#0 2110728#0 38023640 4287348#1 -525228766#5 -525228766#2 13872815#0" />
	<route id="r32" edges="38023640 4287348#1 375778079#1 4847328#0 612719558 -4475729 -8692149#1 -4078064#3 -4074529#2 -30789748 4825310#0 4825310#3 4825310#4 4829640 42879971 38574544#0 38574544#2 38554251 362967234#0 -38574540" />
	<route id="r33" edges="4287348#1 375778079#1 4847328#0 612719558 -4475729 -8692149#1 -4078064#3 4926027#0 4926105#0 72097208#1 72097208#3 72097208#5 128946815#1 4926110#0 4926110#2 -38574542#2" />
	<route id="r34" edges="-4926209#1 -4926189#10 -8568389#5 7919287#2 7919275#3 7919275#4 7919282#0 7919285#0 7919285#1 631925372#0 2294449#0 33854576 -38023640 4847328#0 612719558 -4475729 -8692149#1 -4078064#3 -4074529#2 -30789748 4825310#0 4825310#3 4825310#4 -372284307#1 4825317#0 4825317#3 38574621#0 38574621#1 4934682#0 4934682#1 375758263#0 375758263#1 372838324#0 372838324#4 372838324#5 362939724#1 3788281#0 49185440#0 49185440#5" />
	<route id="r35" edges="-110445434 -365945819#1 -365945819#0 -370154352#1 -370154352#0 -129068838 -4926004#2 -63844803#0 -317312608 -4934599#2 -128946815#10 -128946815#7 -128946815#4 -128946815#2 -128946815#1 -4925959#1 -30789748 -3791034#1 4074528#0 125872847#0 3792428 3792427#0 52879956 357012332#0 357012332#1 59604115 37956677#0 4476051#0 352376956#0 4472595#0 26602093#0 14152304#0 14152304#2" />
	<route id="r36" edges="317312606 33909913#0 7988564#1 7988564#2 27557731#0 -8111025 -4934593 -14041596#2 -7977647#1 -7977648#3 -7977648#2 -7977648#1 -260607183#1 -153341562 -362967235#3 4934596#0 4934596#1 4934596#2 394744910 -61717563#4 -61717563#1 -61717563#0 -362967236#0 4825323#0 -405546346 405546346 -4825323#0 362967236#0 362967236#1" />
	<route id="r37" edges="3792490#0 -125872847#11 -4074528#4 3791034#0 30789748 4925959#0 128946815#1 4926110#0 4926110#2 4926110#3 38554251 362967234#0 362967234#1 394744910 -61717563#4 -61717563#1 -61717563#0 -362967236#0 4825323#0 4825323#1 -4934683 151364#0 46160696#0 37690117 46160695#1 12341245#2 59183296 240818350#0 -136551030#1 -55842941#5 -445591803" />
	<route id="r38" edges="372477029 -4385390#3 38637143#0 -38637143#1 4385390#3 -275506898#1 -38574548#2 38574621#1 4934682#0 4934682#1 375758263#0 375758263#1 372838324#0 372838324#4 372838324#5 362939724#1 3788281#0 70595235#0 362939725 70595240 3787451 3789703#0 114208059#0 gneE64 515236648#0 3789702 43100899#0 162745567#0 162745567#1 162745567#2 8080835 -114208222#2 -114208222#0 -233718298#0" />
	<route id="r39" edges="4934683 -4825323#1 -4825323#0 362967236#0 362967236#1 61717563#1 61717563#2 394744908#0 289876870 -4934596#0 362967235#0 153341562 10577138#1 4926000#0 317312602#1 317312602#2 -4934446#6 -4934446#2 -4934446#0 -4934444#6 -4934444#5 -4934444#4 -4934444#2 -4934444#0 8111025 -145571187 -7988564#2 -7988564#1 238740929 317312606 33909913#0" />
	<route id="r40" edges="4825341#2 3791207#0 3791207#1 372284311 362967237#4 -38574621#1 -38574621#0 -282317511 -4825317#2 372284307#0 -4825310#5 -4825310#3 -4825310#2 30789748 4925959#0 128946815#1 128946815#2 128946815#4 128946815#6 128946815#8 4934599#0 63844804 63844803#0 4926004#0 4934446#0 -26452027#9 -26452027#3" />
	<route id="r41" edges="-53750892#4 532435056#1 532435057#0 26545993#0 -3791031#3 3791034#0 4825310#0 4825310#3 41917642#0" />
	<route id="r42" edges="156771908 -51269108 -49057073#1 -20686399#7 20686243 23567534#8 51269108 -4934627 -37721078#10 -37721078#9 -37721078#7 -4934683 151364#0 46160696#0 37690117 46160695#1 -282243995#2 -44668398#2 -4472600#2 -44658727#10 -44658727#9 -44658727#7 -44658727#6 -44658727#4 -44658727#2 -44658727#1 -44658727#0 -636864248 -37866820 -520012239#1 -4263428#5 -4263428#2 13904686#0" />
	<route id="r43" edges="-129217471#2 -129217478#2 37691371 -151364#1 4934683 -4825323#1 -4825323#0 362967236#0 362967236#1 61717563#1 61717563#2 394744908#0 394744908#1 -362967234#1 -362967234#0 -38554251 -327805506 -4926110#2 -4926110#1 -128946815#1 -4925959#1 4074529#0 4078064#0 8692149#0 4475729 -4475730 2294384#0 4472590#0 37721356#0 4078079#1 38192817 gneE51 gneE52 -43321722 -43321718#3 -43321718#2 43321719#0 -125886704 -43870791#1 43321720#0" />
	<route id="r44" edges="4934683 -4825323#1 -405546346 405546346 4825323#1 -4934683 151364#0 46160696#0 37690117 46160695#1 12341245#2 59183296 240818350#0 -136551030#1 -55842941#5 -55842941#0" />
	<route id="r45" edges="372838324#0 13989314#0 13989314#1 4825341#1 4825341#2 3791207#0 3791207#1 372284311 362967237#4 4934682#0 4934682#1 375758263#0 4825343#0 -53561077" />
	<route id="r46" edges="26545993#0 -3791031#3 3791034#0 30789748 4074529#0 4078064#0 372223883#0 372223883#3 372223883#7 14041596#1 4934592 8111025 -145571187 -7988564#2 -7988564#1 156375816#1 110403099 -110403096" />
	<route id="r47" edges="368505008#3 6145835#0 6145835#1 128521563#0 128521563#1 128521572 238740923#0 238740923#1 33909913#0 156375816#1 156375816#3 129298404#0 129298404#4 2110756#3 631925372#0 2294449#0 33854576 -38023640 4847328#0 612719558 -4475729 -8692149#1 -4078064#3 -4074529#2 -30789748 4825310#0 4825310#3 4825310#4 -372284307#1 -375758262#4 -94895438#2" />
	<route id="r48" edges="49961185 49961186 153340546#1 114207152 83805234 gneE65 55333288#1 55333288#4 4934681#0 4934681#1 3791207#0 3791207#1 372284311 362967237#4 -38574621#1 -38574621#0 -282317511 -4825317#2 372284307#0 -4825310#5 -4825310#3 -4825310#2 30789748 4925959#0 128946815#1 128946815#2 128946815#4 50503784#0" />
	<route id="r49" edges="3787951#0 gneE65 55333288#1 55333288#4 4934681#0 4934681#1 3791207#0 3791207#1 372284311 362967237#4 -38574621#1 -38574621#0 -282317511 -4825317#2 372284307#0 4829640 42879971 38574544#0 38574544#2 -38532082#1 113549155#1 113549155#2" />
	<route id="r50" edges="156771908 -51269108 -49057073#1 -20686399#7 20686243 23567534#8 51269108 -4934627 -37721078#10 -37721078#9 -37721078#7 -4934683 151364#0 46160696#0 37690117 46160695#1 -282243995#2 -44668398#2 -4472600#2 -44658727#10 -44658727#9 -44658727#7 -44658727#6 -44658727#4 -44658727#2 -44658727#1 -44658727#0 -636864248 -37866820 13904645#0 13904645#1 13904645#2 520012240 13904682#0 13904682#2" />
	<route id="r51" edges="631925364#3 23719580#0 525228766#0 525228766#1 525228766#3 375778079#1 4847328#0 612719558 -4475729 -8692149#1 -4078064#3 -4074529#2 -30789748 4825310#0 4825310#3 4825310#4 4829640 42879971 38574544#0 38574544#2 38554251 362967234#0 362967234#1 394744910 -61717563#4 -61717563#1 -61717563#0 -362967236#0 4825323#0 4825323#1 37721078#7 -4825239#1" />
	<route id="r52" edges="372477029 37721078#0 129217467#0 -129217476#2 38574544#0 38574544#2 38554251 362967234#0 362967234#1 -4934596#2 -4934596#1 -4934596#0 362967235#0 153341562 10577138#1 4926000#0 317312602#1 317312602#2 10577136 4934454 37811518" />
	<route id="r53" edges="4934683 -37721078#6 -37721078#5 -37721078#4 -37721078#2 -37721078#1 -275506898#1 -38574548#2 38574621#1 4934682#0 4934682#1 375758263#0 375758263#1 372838324#0 372838324#4 372838324#5 362939724#1 3788281#0 70595235#0 362939725 70595240 3787451 3789703#0 114208059#0 gneE64 515236648#0 3789702 43100899#0 162745567#0 14047760#0 -14047760#1 -162745567#0" />
	<route id="r54" edges="24973956#0 24973956#1 -4475677 68748138#0 74233405#1 553868718#1 3790875#0 3790875#2 26545993#0 -3791031#3 3791034#0 30789748 4074529#0 4078064#0 8692149#0 4475729 -4475730 2294384#0 2110728#0 38023640 4287348#1 -525228766#5 -525228766#2 -525228766#0 4628794#0 4628794#3 398224850#0 4628797#0 4628797#1 49974590#0 59416357#0 59416357#2 -13894939#5 -13894939#2 -13894939#1 13866265 -317027064#0" />
	<route id="r55" edges="24973956#0 24973956#1 -4475677 68748138#0 74233405#1 553868718#1 3790875#0 3790875#2 26545993#0 -3791031#3 3791034#0 30789748 4925959#0 -72097208#9 -72097208#4 -72097208#2 10575479#1" />
	<route id="r56" edges="317312606 33909913#0 156375816#1 156375816#3 129298404#0 129298404#4 2110756#3 631925372#0 2294449#0 33854576 -38023640 4847328#0 612719558 -4475729 -8692149#1 -4078064#3 -4074529#2 -30789748 4825310#0 4825310#3 -9186547#14 375758262#2 375758262#3" />
	<route id="r57" edges="394744908#1 -362967234#1 -362967234#0 -38554251 -38574544#2 -38574544#1 -42879971 -4829640 -372284307#1 4825317#0 4825317#3 38574621#0 38574621#1 4934682#0 4934682#1 375758263#0 4825343#0 -53561077" />
	<route id="r58" edges="372477029 37721078#0 129217467#0 -129217476#2 38574544#0 38574544#2 38554251 362967234#0 362967234#1 -4934596#2 -4934596#1 -4934596#0 362967235#0 153341562 10577138#1 4926000#0 317312602#1 317312602#2 10577136 360342135#0 360342135#1 -638758966" />
	<route id="r59" edges="4934683 37721078#7 37721078#8 37721078#10 -74073875#2" />
	<route id="r60" edges="4825341#2 4825344#0 4385385#0 4825324#0 4934683 -37721078#6 -37721078#5 4829626#0 73654299" />
	<route id="r61" edges="-53750892#4 532435056#1 532435057#0 26545993#0 -3791031#3 3791034#0 30789748 4074529#0 4078064#0 8692149#0 4475729 -4475730 2294384#0 2110728#0 38023640 4287348#1 -525228766#5 -525228766#2 -525228766#0 4628794#0 4628794#3 398224850#0 4628797#0 4628797#1 49974590#0 59416357#0 59416357#2 -13894939#5 -13894939#2 -13894939#1 -125880830#9 13866344#0 -13866267" />
	<route id="r62" edges="317312606 33909913#0 156375816#1 156375816#3 129298404#0 129298404#4 2110756#3 631925372#0 2294449#0 33854576 -38023640 4847328#0 612719558 -4475729 -8692149#1 -4078064#3 -4074529#2 -30789748 4825310#0 4825310#3 4825310#4 -372284307#1 4825317#0 4825317#3 38574621#0 38574621#1 4934682#0 4934682#1 375758263#0 375758263#1 372838324#0 372838324#4 372838324#5 362939724#1 4253728#0 74232837#1 4472591#0 4472592#0 488735970 675882488#0" />
	<route id="r63" edges="156771908 -51269108 -49057073#1 -20686399#7 20686243 23567534#8 51269108 -4934627 -37721078#10 -37721078#9 -37721078#7 -4934683 151364#0 46160696#0 37690117 46160695#1 -162745564#5 -162745564#1 7664730#0 8045273#0 8045273#3 45825602#0 64055562" />
	<route id="r64" edges="38023640 4287348#1 375778079#1 4847328#0 612719558 -4475729 -8692149#1 -4078064#3 -4074529#2 -30789748 4825310#0 4825310#3 4825310#4 4925957#0 4925957#1 275506898#0 275506898#1 -4385390#3 -4385390#2 -4825332 -4385407#1 -4385407#0 -228276373#2 4934681#0 40047168#0 40047168#1" />
	<route id="r65" edges="-129217471#2 -129217478#2 37691371 -151364#1 4934683 -4825323#1 -4825323#0 362967236#0 362967236#1 30466178 48964316 -38265426#1 38532080" />
	<route id="r66" edges="-283771398#2 -283771398#0 -4926120#3 612719558 -4475729 -8692149#1 -4078064#3 -4074529#2 -30789748 4825310#0 4825310#3 4825310#4 4829640 42879971 38574544#0 38574544#2 38554251 362967234#0 362967234#1 394744910 -61717563#4 -61717563#1 -61717563#0 -362967236#0 4825323#0 4825323#1 -4934683 151364#0 46160696#0 37690117 46160695#1 -282243995#2 -44668398#2 -4472600#2 -44658727#10 -44658727#9 -44658727#7 -44658727#6 -44658727#4 -44658727#2 -12341215#2 12341216" />
	<route id="r67" edges="4287348#1 375778079#1 4847328#0 612719558 -4475729 -8692149#1 -4078064#3 -4074529#2 -30789748 4825310#0 4825310#3 4825310#4 4925957#0 4925957#1 275506898#0 275506898#1 -4385390#3 -4385390#2 -4825332 -4385407#1 -4385407#0 -228276373#2 4934681#0 40047168#0 40047168#1" />
	<route id="r68" edges="3792490#0 -125872847#11 -4074528#4 3791034#0 30789748 4925959#0 128946815#1 128946815#2 128946815#4 128946815#6 128946815#8 4934599#0 63844804 63844803#0 4926004#0 4934446#0 -26452027#9 84017574" />
	<route id="r69" edges="372477029 37721078#0 129217467#0 -129217476#2 -42879971 -4829640 -372284307#1 -375758262#4 -375758262#2 -375758262#1 -231340188#1 231250681#0 532096352#0 4074528#0 125872847#0 3792428 3792427#0 52879956 357012332#0 357012332#1 59604115 37956677#0 4476051#0 352376956#0 4472595#0 26602093#0 -15464769#0 4919535#1 4919460 4919471#2 4919471#3 38167515 15464769#0" />
	<route id="r70" edges="4934683 -37721078#6 -37721078#5 4829626#0 73654299" />
	<route id="r71" edges="4934683 -4825323#1 -4825323#0 362967236#0 362967236#1 61717563#1 61717563#2 394744908#0 394744908#1 -362967234#1 -362967234#0 -38554251 -327805506 -4926110#2 -4926110#1 -128946815#1 -4925959#1 4074529#0 4078064#0 8692149#0 4475729 -4475730 2294384#0 4472590#0 37721356#0 4078079#1 38192817 gneE51 gneE49 532427445#0 14039609#0 -14039611#1 -14039611#0" />
	<route id="r72" edges="4934683 -4825323#1 -405546346 405546346 4825323#1 -4934683 151364#0 46160696#0 37690117 46160695#1 -282243995#2 -44668398#2 -4472600#2 -44658727#10 -44658727#9 -44658727#7 -44658727#6 -44658727#4 -44658727#2 -44658727#1 -44658727#0 -636864248 -37866820 -520012239#1 -4263428#5 -4263428#2 -4263428#1 541741587#0 4937392#0 4937392#1 4541293#0 4541293#3 136553370#0 136553370#1" />
	<route id="r73" edges="372838324#0 13989314#0 13989314#1 4825341#1 4825341#2 4825344#0 4385385#0 4825324#0 4934683 -4825323#1 -4825323#0 362967236#0 113552216#0 -113552215" />
	<route id="r74" edges="26545993#0 -3791031#3 3791034#0 30789748 4074529#0 4078064#0 8692149#0 4475729 -4475730 2294384#0 2110728#0 38023640 4287348#1 -525228766#5 -525228766#2 -525228766#0 4628794#0 4628794#3 398224850#0 4628797#0 4628797#1 49974590#0 59416357#0 59416357#2 -13894939#5 -13894939#2 -13894939#1 -125880830#9 -125880830#7 -129211796#2 -129211835#3 -129211786#2 125880830#6" />
	<route id="r75" edges="4825341#2 3791207#0 3791207#1 372284311 362967237#4 4934682#0 4934682#1 129217480#0 -25325810#4 -231340188#1 231250681#0 532096352#0 4074528#0 125872847#0 3792428 3792427#0 52879956 357012332#0 357012332#1 59604115 37956677#0 4476051#0 352376956#0 4472595#0 26602093#0 -15464769#0 4919535#1" />
	<route id="r76" edges="4825341#2 3791207#0 3791207#1 372284311 362967237#4 -38574621#1 -38574621#0 -282317511 -4825317#2 372284307#0 -4825310#5 -4825310#3 -4825310#2 30789748 4074529#0 4078064#0 8692149#0 4475729 -4475730 2294384#0 4472590#0 37721356#0 4078079#1 38192817 gneE51 gneE52 -43321722 -43321718#3 41502636#0 -41502636#1 43321718#3 43321722" />
	<route id="r77" edges="24450827 -130277328#1 -130277328#0 4472602#0 44658727#0 44658727#1 44658727#2 44658727#3 44658727#6 44658727#7 44658727#9 44658727#10 4472600#0 44668398#0 282243995#0 34855953 45755442#1 -46160696#2 -151364#1 4934683 -4825323#1 -4825323#0 362967236#0 362967236#1 61717563#1" />
	<route id="r78" edges="317312606 33909913#0 156375816#1 156375816#3 129298404#0 129298404#4 2110756#3 631925372#0 2294449#0 33854576 -38023640 4847328#0 612719558 -4475729 -8692149#1 -4078064#3 -4074529#2 -30789748 4825310#0 4825310#3 4825310#4 4829640 42879971 38574544#0 38574544#2 -38532082#1 -37722158 48964316 -38265426#1 -38265426#0" />
	<route id="r79" edges="50214631#0 -12341247#4 12341246#3 49961185 49961186 153340546#1 114207152 83805234 gneE65 55333288#1 55333288#4 4934681#0 4934681#1 3791207#0 3791207#1 372284311 362967237#4 372477029 37721078#0 129217467#0" />
	<route id="r80" edges="3787951#0 gneE65 55333288#1 55333288#4 4934681#0 4934681#1 3791207#0 3791207#1 372284311 362967237#4 -38574621#1 -38574621#0 -282317511 -4825317#2 372284307#0 -4825310#5 -4825310#3 -4825310#2 30789748 4925959#0 128946815#1 128946815#2 128946815#4 128946815#6 128946815#8 4934599#0 63844804 63844803#0 4926004#0 129068838 370154352#0 370154352#1 365945819#0 365945819#1 110445434 110445440 20834534#4 128521564 9084588#0 368505007#2" />
	<route id="r81" edges="156771908 -51269108 -49057073#1 -20686399#7 20686243 23567534#8 51269108 -4934627 -37721078#10 -37721078#9 -37721078#7 -37721078#6 -37721078#5 -37721078#4 -37721078#2 -37721078#1 -275506898#1 -38574548#2 38574621#1 4934682#0 4934682#1 375758263#0 375758263#1 372838324#0 372838324#4 372838324#5 362939724#1 3788281#0 70595235#0 362939725 70595240 3787451 3789703#0 114208059#0 gneE64 515236648#0 3789702 14047764#0 12341254#0 12341248 13904691#0 13904691#1 13904650#7 -162745567#1" />
	<route id="r82" edges="-129217471#2 -129217478#2 37691371 -151364#1 4934683 -4825323#1 -4825323#0 362967236#0 362967236#1 61717563#1 61717563#2 394744908#0 289876870 -4934596#0 362967235#0 153341562 10577138#1 4926000#0 317312602#1 317312602#2 -4934446#6 -4934446#2 -4934446#0 129068838 370154352#0 370154352#1 365945819#0 365945819#1 110445434 110445437 156375819#0 405573991 128521424 -370154351#3 -6145835#1 -6145835#0" />
	<route id="r83" edges="368505008#3 6145835#0 6145835#1 128521563#0 128521563#1 128521421#0 -9084588#2 -9084588#1 -128521564 20834536 -365945819#1 -365945819#0 -370154352#1 -370154352#0 -129068838 -4926004#2 -63844803#0 -317312608 -4934599#2 -260607183#1 -153341562 -362967235#3 4934596#0 4934596#1 4934596#2 394744910 -61717563#4 -61717563#1 -61717563#0 -362967236#0 4825323#0 4825323#1 -4934683 151364#0 46160696#0 37690117 153340545#0 -4385407#1 -4385407#0" />
	<route id="r84" edges="372477029 -4385390#3 -4385390#2 4825324#0 151364#0 46160696#0 37690117 46160695#1 -162745564#5 -162745564#1 7664730#0 8045273#0 8045273#3 45825602#0 64055562" />
	<route id="r85" edges="4934683 -4825323#1 -405546346 405546346 4825323#1 -4934683 151364#0 46160696#0 37690117 46160695#1 -282243995#2 -44668398#2 -4472600#2 -44658727#10 -44658727#9 -44658727#7 -44658727#6 -44658727#4 -45619532" />
	<route id="r86" edges="24973956#0 24973956#1 -4475677 68748138#0 74233405#1 553868718#1 3790875#0 3790875#2 26545993#0 -3791031#3 3791034#0 30789748 4074529#0 4078064#0 8692149#0 4475729 -4475730 2294384#0 2110728#0 38023640 4287348#1 -525228766#5 -525228766#2 -525228766#0 4628794#0 4628794#3 398224850#0 4628797#0 4628797#1 49974590#0 59416357#0 59416357#2 -13894939#5 -13894939#2 -13894939#1 13866265 317027065#0" />
	<route id="r87" edges="394744908#1 -362967234#1 -38574540 38574540 362967234#1 394744910 -61717563#4 -61717563#1 -61717563#0 113552216#0 113552216#2" />
	<route id="r88" edges="-129298404#3 -156375816#4 -156375816#2 7988564#1 7988564#2 27557731#0 -8111025 -4934593 -14041596#2 -7977647#1 -7977648#3 -7977648#2 -7977648#1 -260607183#1 -153341562 -362967235#3 4934596#0 4934596#1 4934596#2 394744910 -61717563#4 -61717563#1 -61717563#0 -362967236#0 4825323#0 4825323#1 -4934683 -4825324#1 4385390#0" />
	<route id="r89" edges="49961185 49961186 153340546#1 114207152 83805234 gneE65 55333288#1 55333288#4 4934681#0 4934681#1 3791207#0 3791207#1 372284311 362967237#4 -38574621#1 -38574621#0 -282317511 -4825317#2 372284307#0 -4825310#5 -4825310#3 -4825310#2 30789748 4074529#0 4926027#0 4926027#3 4926036#0 4926036#1 375772042#0" />
	<route id="r90" edges="24450827 -130277328#1 -130277328#0 -354359921#2 -354359922 -37865180#1 -37865179#1 -37865178 -627577866#2 4385840#0 114207514#0 114207514#1 114207152 83805234 gneE65 55333288#1 55333288#4 4934681#0 4934681#1 3791207#0 3791207#1 372284311 362967237#4 4934682#0 4934682#1 375758263#0 4825343#0 -53561077" />
	<route id="r91" edges="372477029 37721078#0 129217467#0 -129217476#2 -42879971 -4829640 -4825310#5 -4825310#3 -4825310#2 30789748 4074529#0 4078064#0 8692149#0 4475729 -4475730 2294384#0 2110728#0 38023640 4287348#1 -525228766#5 -525228766#2 -525228766#0 4628794#0 4628794#3 398224850#0 4628797#0 4628797#1 49974590#0 5976027#0 13873182 -317027065#5 -317027065#4 -317027065#3 -317027065#1 13866329#0" />
	<route id="r92" edges="4934683 -4825323#1 -405546346 405546346 4825323#1 -4934683 151364#0 46160696#0 37690117 46160695#1 -282243995#2 -44668398#2 -4472600#2 -44658727#10 -44658727#9 -44658727#7 -44658727#6 -44658727#4 -44658727#2 -12341215#2 12341216" />
	<route id="r93" edges="3787951#0 gneE65 55333288#1 55333288#4 4934681#0 4934681#1 3791207#0 3791207#1 372284311 362967237#4 -38574621#1 -38574621#0 -282317511 -4825317#2 372284307#0 -4825310#5 -4825310#3 -4825310#2 30789748 4925959#0 128946815#1 128946815#2 128946815#4 128946815#6 128946815#8 4934599#0 63844804 63844803#0 4926004#0 129068838 370154352#0 370154352#1 365945819#0 13983801#0 13983801#1 38864097" />
	<route id="r94" edges="3787951#0 gneE65 55333288#1 55333288#4 4934681#0 4934681#1 3791207#0 3791207#1 372284311 362967237#4 -38574621#1 -38574621#0 -282317511 -4825317#2 372284307#0 -4825310#5 -4825310#3 -4825310#2 30789748 4925959#0 128946815#1 128946815#2 128946815#4 128946815#6 128946815#8 4934599#0 63844804 63844803#0 4926004#0 129068838 370154352#0 22716630#0 22716630#1 22716630#2" />