<?xml version='1.0' encoding='utf-8'?>
<additional>
	<edgeData id="edge_data" file="/home/svadlmat/UTC/utc/data/scenarios/itsc_25200_32400_red/statistics/stats_full_edgedata.out.xml" period="900" />
</additional>