<?xml version='1.0' encoding='utf-8'?>
<routes>
	<route id="r0" edges="-31114 -32836#0 -32836#1 -32836#2 -31836 -31132#2 -32200#0 --30860#10 --30860#9 --30860#8 --30860#7 --32370 --31758 -31892#1 -31390 -31274#0 -31274#1 -32652#4 --30940 --30646#7 --30646#6 -32000 -32458#1 -32458#2 --31190 -31470#1 -31318 -31952#17 -31952#18 --31812 -30582#0 -30582#1 --31152#1 -31204#0 -31204#1 -31204#2 --31610#3 --31610#2 --31610#1 --32818#4 --32818#3 --32818#2" />
	<route id="r1" edges="--32192#11 --32210#0 -31894#1 -31894#2 --31910#4 --31910#3 --31910#2 --31668#4 --31668#3 --31668#2 --31668#1 --31668#0 -32776#3 --31844#3 -31012 --31878#2 --31878#1 --31878#0 -30872#0 -30872#1 -30872#2 -30872#3 -30872#4 -30872#5 -30872#6 -30872#7" />
	<route id="r2" edges="-31842 -32428#0 -32428#1 -32428#2 --31842 --32746#1 --32746#0 --32896 --31118#2 --32106#1 -32892#0 -32892#1 -32892#2 --31342#2 --31706#0 --32366#1 --32366#0 -31496#13 --31748#3 --31748#2 -30370#5 -30370#6 -30370#7 --31744#1 --31718#3 --31718#2 --31718#1 --31718#0 --31610#5 --31610#4 --31610#3 --31610#2 --32644#2 --32644#1 --31476 -30892#2 -30298 -30384#3 -30384#4 -30384#5 --31834#1 --31834#0 -30812 -31648#2 -31648#3 -31648#4 -31648#5 --32674#9 --32674#8 --32674#7 -30856#0 -30856#1" />
	<route id="r3" edges="--30542#1 --30872#11 --30872#10 -31602#0" />
	<route id="r4" edges="--31794#6 -30510 --30528#41 --30528#40 --30528#39 --30528#38 --30528#37 --30528#36 --30528#35 --30528#34 --30528#33 --30528#32 --30528#31 --30528#30 --30528#29 --30528#28 --30528#27 --30528#26 --30528#25 --30528#24 --30528#23 --30528#22 --30528#21 --30528#20 --32916#3 --32916#2 --32916#1 --32916#0 --31230#3 --31230#2 --31230#1 --31230#0 -31296 --32856 -31352 --31606#0 --31986 --32786#6 --32786#5 --32786#4 --32028#3 --32028#2 --32028#1 --30262#0 -32924#13" />
	<route id="r5" edges="--30542#1 --30872#11 --30872#10 --30872#9 --30872#8 --30872#7 --30872#6 --30872#5 --30872#4 --30872#3 --30872#2 --30872#1 --30872#0 -31878#0 -31878#1 -31878#2 --31012 -31844#3 --32776#3 --32776#2 --32776#1 --32776#0 -30802#2 -31174#0 -31174#1 -31174#2 --31952#14 --31952#13 --31952#12 -30916#0 --31302" />
	<route id="r6" edges="--32030 --30646#6 -32000 -32458#1 -32458#2 --31190 -31470#1 -31318 -31952#17 -31952#18 --31812 -30582#0 -30582#1 --31152#1 -31204#0 -31204#1 -31204#2 --31610#3 --31610#2 --31610#1 --32818#4 --32818#3 --32818#2 --32818#1 --32818#0 --32924#13 -30262#0 -30262#1 -30418#1 -30418#2 -30418#3 -30418#4 -30418#5 --30842#4 --30842#3 --30842#2 -31734 -30892#15 -30892#16 -30892#17 -30892#18 -30892#19 -30892#20 -30892#21 -30892#22 -30892#23 -30892#24 -30892#25 -30892#26 -31680#3 -31680#4 -31462#0 -31462#1 -31462#2 -31462#3 -32952#2 -32952#0 -31452#0 -31452#1" />
	<route id="r7" edges="-30806#0 -31532 --31668#6 --31668#5 --31668#4 --31668#3 --31668#2 --31668#1 --31668#0 -32776#3 --31844#3 -31012 --31878#2 --31878#1 --31878#0 -31992#5 --31610#5 --31610#4 --31610#3 --31610#2 --32644#2 --32644#1 --31476 -30892#2 -30298 -30384#3 -30384#4 -30384#5 --31834#1 -30662 -31556 --30528#2 -32672 -31648#3 -31648#4 -31648#5 --32674#9 --31180#1 --31180#0 -31594#1 -31594#2 -32530#0 -32530#1 -30856#2 -30856#3 -30856#4 -30856#5 -30856#6 -30856#7 -30856#8" />
	<route id="r8" edges="--30542#1 --30872#11 --30872#10 -31602#0 -31564#2 -31564#3 -31564#4 --30262#2 --30262#1 --30262#0 --32924#12 --32924#11 -30520#1 -30520#2 -32750#9 -32750#10 -30384#2 -30384#3 -30384#4 -30384#5 -30384#6 --31838#1 --31838#0 -32486#1 --31056#2 --31056#1 --31208#1 -30796 --32652#8 --32652#7 -30912#1 -30912#2 -30710#0 -30710#1 -30710#2 -31892#0 -31758 -32370 -30860#7 -30860#8 -30860#9 -30860#10 --32200#0" />
	<route id="r9" edges="-32426#0 -32426#0-AddedOffRampEdge -32426#1 -32426#2-AddedOnRampEdge -32426#2 -32426#2-AddedOffRampEdge -32454#0 -32454#1-AddedOnRampEdge -32454#1 -32454#1-AddedOffRampEdge -32860 -32788#2 -32788#3 -32064#0 --30684#2 -30742#0 --30362#1 -31784#2 -32598#0 --31744#4 --31744#3 -30846#2 -30846#3 --30822#2 -32810#0 -32810#1 -30300#1 --31610#2 --32644#2 --32644#1 --31476 -30892#2 -30298 -30384#3 -30384#4 -30384#5 -30384#6 -30384#7 -30944 --31504#2 --31504#1 --31504#0 -32574 -30632#0 -30632#1 -32404#0 -32072#0 -30988#0 -31584 -30988#3 --30648#15 --30648#14 -31952#0 -30594 --30890#4" />
	<route id="r10" edges="--32954 --32748#0 --32084#0 --32364#4 --32364#3 --32364#2 --32364#1 --32364#0 --32552#2 --32552#1 --32552#0 -30648#13 -30648#14 -30648#15 -31492#0 -31492#1 -30528#0 -30528#1 -30528#2 -30528#3 -30528#4 --32750#12 --32750#11 --32750#10 --32750#9 --32750#8 --32750#7 --32750#6 --32750#5 --32750#4 --32750#3 --32750#2 --32750#1 --32750#0 --31496#14 --31496#13 --31496#12 --31496#11 --31496#10 --31496#9 --31496#8 --31496#7 --31496#6 --31496#5 --31496#4 --31496#3 --31466#3 --31466#2 --31466#1 --31466#0 -30888#1 -30888#2 -30404#0 -30404#1 -30404#2 -30404#3 -30404#4 -30404#5 --30358#11 --30358#10 --30358#9 --30358#8 --30358#7 --30358#6 --30358#5 --30358#4 --30358#3" />
	<route id="r11" edges="--30528#57 --30528#56 --31500#1 --31500#0 --32226#2 --32226#1 -31450#0 --32586#2 --32586#1 --32586#0 --31636#0 --30528#45 --30528#44 --30528#43 --30528#42 --30528#41 --30528#40 --30528#39 --30528#38 --30528#37 --30528#36 --30528#35 --30528#34 --30528#33 --30528#32 --30528#31 --30528#30 --30528#29 --30528#28 --30528#27 --30528#26 --30528#25 --30528#24 --30528#23 --30528#22 --30528#21 --30528#20 --32916#3 --32916#2 --32916#1 --32916#0 --31230#3 --31230#2 --31230#1 --31230#0 -31296 --32856 -31352 --31606#0 --31986 --32786#6 --30892#10 --30892#9 --30892#8 --30892#7 --30892#6 -32750#10 -30384#2 -30384#3 -30384#4 -30384#5" />
	<route id="r12" edges="--31568 -32422#2 -30590#0 -30590#1 -30590#2 -30590#3 -30590#4 -30590#5 -32600 -31184 -32426#2-AddedOnRampEdge -32426#2 -32426#2-AddedOffRampEdge -32454#0 -32454#1-AddedOnRampEdge -32454#1 -32454#1-AddedOffRampEdge -32860 -32788#2 -32788#3 -32064#0 --30684#2 --30684#1 -31784#0 -32256 -31962#4 -30846#0 -30846#1 -30846#2 -30846#3 --30822#2 -32810#0 -32810#1 -30300#1 --31610#2 --32644#2 --32644#1 --31476 --30892#1 --30892#0 -30892 -30256#0 --31812" />
	<route id="r13" edges="--32230#8 --32230#7 --32230#6 --32230#5 --32230#4 --32230#3 --32230#2 --32230#1 --32230#0 --32224#1 --32224#0 --30654 --32074 -30648#9 -30648#10 -30648#11 -30648#12 -30648#13 -30648#14 -30648#15 -31492#0 -31492#1 -30528#0 -30528#1 -30528#2 -30528#3 -30528#4 --32750#12 --32750#11 --32750#10 --32750#9 --32750#8 --32750#7 --32750#6 --32750#5 --32750#4 --32750#3 --32750#2 --32750#1 --32750#0 --31496#14 --31496#13 --31496#12 --31496#11 --31496#10 --31496#9 --31496#8 --31496#7 --31496#6 --31496#5 --31496#4 -32306#0 -32306#1 -32306#2 -32306#3 -32306#4 -30772#3 -30772#1 -31896 -31578#5 -31578#1 -31578#2 -31684" />
	<route id="r14" edges="--31602#0 -30872#10 --31272#7 -30892#17 -30892#18 -30892#19 --30560 --31966#13 --31966#12 --31966#11 --31966#10 --32742#5 --32742#4 --32742#3 --32742#2 --32742#1 --32742#0" />
	<route id="r15" edges="-30648#0 -30648#1 -30648#2 -30648#3 -30648#4 -30648#5 -30648#6 -30648#7 -30648#8 -30648#9 -30648#10 -30648#11 -30648#12 -30648#13 -30648#14 -30648#15 -31492#0 -31492#1 -31492#2 --31648#5 --31648#4 --31648#3 --31648#2 --31648#1 --31648#0 -30528#5 -30528#6 -32924#5 -32924#6 -32924#7 -30556 -30892#8 -30892#9 -32924#9 -32924#10" />
	<route id="r16" edges="-30706#0 -30706#0-AddedOffRampEdge -30706#1 -30706#2-AddedOnRampEdge -30706#2 -30706#3-AddedOnRampEdge -30706#4 -32798-AddedOnRampEdge -32798 -31876#1 -31876#2 -31340#0 -31340#1 -31340#2 -31340#3 -31340#4 -31066#1 -31066#2 -32618#0 -32618#1 --30552 -31066#6 -31066#7 --30892#21 --30892#20 --30892#19 --30892#18 --30892#17 --30892#16 --32270#3 -30842#1 -30842#2 -30842#3 -30842#4 --30418#5 -32290 -32786#4 -32786#5 --30892#10 --30892#9 --30892#8 --30892#7 --30892#6 --30892#5" />
	<route id="r17" edges="--30808#1 -31302 --30916#0 -31952#12 -31952#13 -31952#14 -31952#15 -31952#16 -31952#17 -31952#18 --31812 -30582#0 -30582#1 --31152#1 -31204#0 -31204#1 -31204#2 --31610#3 --31610#2 --31610#1 --32818#4 --32818#3 --32818#2 --32818#1 --32818#0 --32924#13 -30262#0 -30262#1 -30262#2 --31564#4 --32786#0 -30872#9 -30872#10 --31272#7" />
	<route id="r18" edges="--30542#1 --30872#11 --30872#10 --30872#9 -32786#0 -32786#1 -32786#2 -32786#3 -32786#4 -32786#5 --30892#10 --32924#8 --32924#7 --32924#6 -30644#0 -32750#12 -31648#0 -31648#1 -31648#2 -31648#3 -32162#0 --30528#0 --31492#1 --31492#0 --30648#15 --30648#14 --30648#13 --30648#12 --30648#11 --30648#10 --30648#9 --30648#8 --30648#7 --30648#6 --30648#5 --30648#4 --30648#3 --30648#2 --30648#1 --30648#0" />
	<route id="r19" edges="--31508#3 -32878#6 -32878#7 -32878#8 -31226#1 -31316 -30668#2-AddedOnRampEdge -30668#2 -30668#2-AddedOffRampEdge -30668#3 -30668#4-AddedOnRampEdge -30668#4 -30668#4-AddedOffRampEdge -30668#5 -30668#6-AddedOnRampEdge -30668#6 -30668#6-AddedOffRampEdge -30668#7 -30668#7-AddedOffRampEdge -30966#0 -30966#1 -32454#1-AddedOnRampEdge -32454#1 -32454#1-AddedOffRampEdge -32454#2 -32706 --31272#8 --30872#10 --30872#9 --30872#8" />
	<route id="r20" edges="-31562#4 -30772#1 -30772#2 -30772#3 --31562#4 --31562#3 --31562#2 --31562#1 --31562#0 -32050#4 -31806#0 --31844#5 --31844#4 -32776#4 --31878#4 --31878#3 --31878#2 --31878#1 --31878#0 -31992#5 --31610#5 --31610#4 --31610#3 --31610#2 --32644#2 --32644#1 --31476 -30892#2 -30298 -30384#3 -30384#4 -30384#5 -31834#2 -30724#0 -30724#1 -30724#2" />
	<route id="r21" edges="-30468#1 --32094#2 --32094#1 --32094#0 --30468#0 -31952#8 --30860#9 --30860#8 --30860#7 --32370 --31758 -31892#1 -31390 -31274#0 -31274#1 -32652#4 -32652#5 --32030 --30646#6 -32000 -32458#1 -32458#2 --31190 -31470#1 -31318 -31952#17 -31952#18 --31812 -30582#0 -30582#1 --31152#1 -31204#0 -31204#1 -31204#2 --31610#3 --31610#2 --31610#1 --32818#4 --32818#3 --32818#2 --32818#1 --32818#0 --32924#13 -30262#0 -30262#1 -30418#1 -30418#2 -30418#3 -30418#4 -30418#5 --30842#4 --30842#3 --30842#2 --30842#1 -32270#3 -30892#16 -30892#17 -30892#18 -30892#19 --30560 --31966#13 --31966#12 --31966#11 --31966#10 --32742#5 --32742#4 --32742#3 --32742#2 --32742#1 --32742#0" />
	<route id="r22" edges="--31452#1 --31452#0 -32952#1 --31462#3 --31462#2 --31462#1 --31462#0 -31680#1 -31680#2 --30892#26 --30892#25 --30892#24 --30892#23 --30892#22 --30892#21 --30892#20 --30892#19 --30892#18 --30892#17 --30892#16 --32270#3 -30842#1 -30842#2 -30842#3 --31602#3 -31148 -32290 -32786#4 -32786#5 --30892#10 --32924#8 --32924#7 --32924#6 -30644#0 -30644#1 -30662 -31544#1 -31068#1 -30620 --31070#9 --31070#8 -30444#0 -30444#1 -32350#0 -32972 -31586#4" />
	<route id="r23" edges="-31668#3 -31370 -31910#1 --31668#4 --31668#3 --31668#2 --31668#1 --31668#0 -32776#3 --31844#3 -31012 --31878#2 --31878#1 --31878#0 -30872#0 -30872#1 -30872#2 -30872#3 -30872#4 -30872#5 -30872#6 -30872#7 -30872#8 -32786#0 -32786#1 -32786#2 -30418#3 -30418#4 -30418#5 -30418#6 -30892#12 -31920 -31606#0 -32536" />
	<route id="r24" edges="--32620#1 -32604 --30528#37 --30528#36 --30528#35 --30528#34 --30528#33 --30528#32 --30528#31 --30528#30 --30528#29 --30528#28 --30528#27 --30528#26 --30528#25 --30528#24 --30528#23 --30528#22 --30528#21 --30528#20 --32916#3 --32916#2 --32916#1 --32916#0 --31230#3 --31230#2 --31230#1 --31230#0 -31296 --32856 -31352 --31606#0 --31986 --32786#6 --30892#10 --30892#9 --32886 -30520#2 --32750#8 --32750#7 -32818#3 -32818#4 --31610#0" />
	<route id="r25" edges="-30490#3 --32708#0 -32550#2 -30438 --30490#0 -30648#5 -30648#6 -30648#7 -30648#8 -30648#9 -30648#10 -30648#11 -30648#12 -30648#13 -30648#14 -30648#15 -31492#0 -31492#1 -31492#2 --31648#5 --31648#4 --31648#3 --31648#2 --31648#1 -30814 --32388 -32282#1 -32822 -32924#4 -32924#5 -32924#6 -32924#7 -30556 -30892#8 -30892#9 -32924#9 -30660 --32786#4 --32786#3 -30418#3 -30418#4 -30418#5 --30842#4 --30842#3 --30842#2 --30842#1 -32270#3 -30892#16 -30892#17 -30892#18 -30892#19 -30892#20 -30892#21 -30892#22 -30892#23 -30892#24 -30892#25 -30892#26 -31680#3 -31680#4 -31462#0 --30798#1" />
	<route id="r26" edges="-30262#0 -30262#1 -30418#1 -30418#2 -30418#3 -30418#4 -30418#5 --30842#4 --30842#3 --30842#2 -31734 -30892#15 -30892#16 -30892#17 -30892#18 -30892#19 -30892#20 -30892#21 --31066#7 --31066#6 -30552 --32618#1 --32618#0 --31066#2 --31066#1 --31340#4 --31340#3 --31340#2 --31340#1 --31340#0 -31876#3 -31876#4 -31876#1 -30496#0 -30496#1 --30854#3 --30854#2 -31724#0 -31724#1 -30280 -30528#35 -30528#36 -30528#37 -30528#38 -30528#39 -30528#40 -30528#41 -30528#42 -30528#43 -30528#44 -30528#45 -31636#0 -32586#0 -32586#1 -32586#2 -31450#1 -31450#2 --30720#0 --32226#3 --32226#2" />
	<route id="r27" edges="-32786#6 -31986 -31606#0 -31606#1 --31634 --30768#1 --30768#0 -31230#2 -31230#3 -31230#4 -31230#5 -32410#0 -32410#1 -32410#2 --30608#10 --30608#9 --30608#8 --30608#7 --30608#6 --30608#5 --30608#4 --30608#3 --30608#2" />
	<route id="r28" edges="--31064 --30468#2 --30468#1 --30468#0 -31952#8 --30860#9 --30860#8 --30860#7 --32370 --31758 -31892#1 -31390 -31274#0 -31274#1 -32652#4 -32652#5 --32030 --30646#6 -32000 -32458#1 -32458#2 --31190 -31470#1 -31318 -31952#17 -31952#18 --31812 -30582#0 -30582#1 --31152#1 -31204#0 -31204#1 -31204#2 --31610#3 --31610#2 --31610#1 --32818#4 --32818#3 --32818#2 --32818#1 --32818#0 --32924#13 -30262#0 -30262#1 -30418#1 -30418#2 -30418#3 -30418#4 -30418#5 --30842#4 --30842#3 --30842#2 --30842#1 -32270#3 -30892#16 -30892#17 -30892#18 -30892#19 -30892#20 -30892#21 -30892#22 -30892#23 -30892#24 -30892#25 -30892#26 -31680#3 -31680#4 -31462#0 -31462#1 -31462#2 -31462#3 -32952#2 -32952#0 -31452#0 --30762#1 --30762#0" />
	<route id="r29" edges="-32740#0 -32740#1 -32740#2 -32740#3 --32230#1 --32230#0 --32224#1 --32224#0 --30654 --32074 -30648#9 -30648#10 -30648#11 -30648#12 -30648#13 -30648#14 -30648#15 -31492#0 -31492#1 -31492#2 --31648#5 --31648#4 --31648#3 --31648#2 --31648#1 -30814 --32388 -32282#1 -32822 -32924#4 -32924#5 -32924#6 -32924#7 -30556 -30892#8 -30892#9 -32924#9 -30660 --32786#4 --32786#3 -30418#3 -30418#4 -30418#5 --30842#4 --30842#3 --30842#2 -31734 -30892#15 -30892#16 -30892#17 -30892#18 -30892#19 --30560 --31966#13 --31966#12 --31966#11 --31966#10 --31966#9 --31966#8 --31966#7 --31966#6 --31966#5 --31966#4 --31966#3 --31966#2 --31966#1" />
	<route id="r30" edges="--31486#0 -30608#4 -30608#5 -30608#6 -30608#7 -30608#8 -30608#9 -30608#10 -30568 -31232 -31030 -31380#0 -31380#1 -31380#2 --30528#7 -32924#5 -30644#0 --32750#11 --32750#10 --30892#5 -31610#0 -31610#1 -31610#2 -31610#3 --31204#2 --30700#2 --30700#1 --30700#0 -31878#1 -31878#2 --31012 -31844#3 -31844#4 -31844#5 --31806#0 -32050#1 -32596#0 -32596#1 -32596#2 -31578#2 -31684 -31860#1 -31860#2 -31004#1 -32878#0 --32968#3 --31338#2 --31338#1 -30450#1 --30946#2 --30946#1 --31146#1 --32354#1 --32354#0 -31768#8 -32414#0 -30314#0 -30358#0" />
	<route id="r31" edges="-30384#6 --31838#1 -30962#2 --30892 -30892#0 -30892#1 -30892#2 -30892#3 -32016 -32644#2 -31610#2 -31610#3 -31610#4 -31610#5 -31718#0 -31718#1 -31718#2 -31718#3 -31744#1 --30370#7 --30370#6 --30370#5 -31748#2 --31616 --31458#0 --31496#11 --31496#10 --31496#9 --31496#8 --31496#7 --31496#6 --31496#5 --31496#4 --31496#3 --31496#2 --30316" />
	<route id="r32" edges="--30542#1 --30872#11 --30872#10 --30872#9 --30872#8 --30872#7 --30872#6 -32978#0 --31744#5 --31744#4 --31744#3 --31744#2 --31744#1 --31744#0 -31992#4 -31878#0 -31878#1 -31878#2 --31012 -31844#3 --32776#3 --32776#2 --31940#4 --32564#2 -31212 --32406#0 -32564#1 -32564#2" />
	<route id="r33" edges="-32766 -31162#2 -31162#3 -31162#4 -30336#0 -30336#1 -30336#2 -30888#0 -30888#1 -32308#0 -32134 --30844#0 -31578#4 -31578#5 --30624 -32050#3 -32050#4 -31806#0 --31844#5 --31844#4 --31844#3 -31012 --31878#2 --31878#1 --31878#0 -31992#5 --31610#5 --31610#4 --31610#3 --31610#2 --32644#2 --32644#1 --31476 -30892#2 -30298 -30384#3 -30384#4 -30384#5 --31834#1 -30662 -31556 --30528#2 -32672 -31648#3 -31648#4 -31648#5 --32674#9 --32674#8 --32674#7 --32674#6 --32674#5" />
	<route id="r34" edges="-31564#5 -30770#1 -30418#0 -30418#1 -30418#2 -30418#3 -30418#4 -30418#5 --30842#4 --30842#3 --30842#2 -31734 -30892#15 -30892#16 -30892#17 -30892#18 -30892#19 --30560 --31966#13 --31966#12 --31966#11 --31966#10 --31966#9 --31966#8 --31966#7 --31966#6 --31966#5 --31966#4" />
	<route id="r35" edges="--31966#13 --31966#12 -32716#0 -32716#1 -32716#2 -31966#11 -31966#12 -31966#13 --32184 --30892#19 --30892#18 --30892#17 --30892#16 --32270#3 -30842#1 -30842#2 -30842#3 --31602#3 -31148 -32290 -32786#4 -32786#5 --30892#10 --32924#8 --32924#7 --32924#6 --32924#5 --30528#6 --30528#5 -31648#0 -31648#1 -31648#2 -31648#3 -31648#4 -31648#5 --31492#2 --31492#1 --31492#0 --30648#15 --30648#14 --30648#13 --30648#12 --30648#11 --30648#10 --30648#9 --30648#8 --30648#7" />
	<route id="r36" edges="--30860#0 --30632#1 --30632#0 -30338 -31780 -31504#0 -31504#1 -31504#2 -30962#0 -30962#1 -30962#2 --30892 -30892#0 -30892#1 -30892#2 -30892#3 -32016 -32644#2 -31610#2 -31610#3 -31610#4 -31610#5 -31718#0 -31718#1 -31718#2 -31718#3 -31744#1 --30370#7 --30370#6 --30370#5 -31748#2 -31748#3 --31496#13 -32366#0 -32366#1 -31706#0 -31706#1 -32106#0 -32106#1 -31118#2 -32664#0 -32664#1 -32664#2 --31496#5 --31496#4 --31496#3 --31466#3 --31466#2" />
	<route id="r37" edges="-30648#0 -30648#1 -30648#2 -30648#3 -30648#4 -30648#5 -30648#6 -30648#7 -30648#8 -30648#9 -30648#10 -30648#11 -30648#12 -30648#13 -30648#14 -30648#15 -31492#0 -31492#1 -30528#0 -30528#1 -30528#2 -30528#3 -30528#4 --32750#12 --32750#11 --32750#10 --32750#9 --32750#8 --32750#7 --32750#6 --32750#5 --32750#4 --32750#3 --32750#2 --32750#1 --32750#0 --31496#14 --31496#13 --31496#12 --31496#11 --31496#10 --31496#9 --31496#8 --31496#7 --31496#6 --31496#5 --31496#4 --31496#3 --31466#3 --31466#2 --31466#1 --31466#0 -30888#1 -30888#2 -30404#0 -30404#1 -30404#2 -30404#3 -30404#4 -30404#5 -30358#12 -32482#0 -32482#1 -32482#2 -32482#3 -31216 --30746#0 -31612#1" />
	<route id="r38" edges="--30542#1 --30872#11 --30872#10 -31602#0 -31564#2 -31564#3 -31564#4 --30262#2 --30262#1 --30262#0 --32924#12 --32924#11 -30520#1 -30520#2 -32750#9 -32750#10 -30384#2 -30384#3 -30384#4 -30384#5 -30384#6 -30384#7 -30944 --31504#2 --31504#1 --31504#0 -32574 -30632#0 -30632#1 -32404#0 -32072#0 -30988#0 -31584 -30988#3 --30648#15 --30648#14 --30648#13 -32552#0 -32552#1" />
	<route id="r39" edges="-32426#0 -32426#0-AddedOffRampEdge -32426#1 -32426#2-AddedOnRampEdge -32426#2 -32426#2-AddedOffRampEdge -32454#0 -32454#1-AddedOnRampEdge -32454#1 -32454#1-AddedOffRampEdge -32454#2 -32706 --31272#8 --30872#10 -31602#0 -31602#1 -31602#2 -31148 -32290 -32786#4 -32786#5 --30892#10 --32924#8 --32924#7 --32924#6 -30644#0 -32750#12 -31648#0 -31648#1 -31648#2 -31648#3 -31648#4 -31648#5 --31492#2 --31492#1 --31492#0 --30648#15 --30648#14 --30648#13 --30648#12 --30648#11 --30648#10 --30648#9 -32194 -30654 -32224#0 -32224#1 -32710#0 -32710#1 --32552#1" />
	<route id="r40" edges="-31240#1 -31240#2 --32924#14 --32924#13 -30262#0 -30262#1 -30418#1 -30418#2 -30418#3 -30418#4 -30418#5 --30842#4 --30842#3 --30842#2 -31734 -30892#15 -30892#16 -30892#17 -30892#18 -30892#19 -30892#20 -30892#21 -30892#22 -30892#23 -30892#24 -30892#25 -30892#26 -31680#3 -31680#4 -31462#0 -31462#1 -31462#2 -31462#3 -32952#2 -32952#0 -31452#0 --30762#1 --30762#0" />
	<route id="r41" edges="--30542#1 --30872#11 --30872#10 --30872#9 --30872#8 --30872#7 --30872#6 --30872#5 --30872#4 --30872#3 --30872#2 --30872#1 --30872#0 -31878#0 -31878#1 -31878#2 --31012 -31844#3 --32776#3 -31668#0 -32738 --31930#2 --31930#1 -32238 -31940#6" />
	<route id="r42" edges="-30648#0 -30648#1 -30648#2 -30648#3 -30648#4 -30648#5 -30648#6 -30648#7 -30648#8 -30648#9 -30648#10 -30648#11 -30648#12 -30648#13 -30648#14 -30648#15 -31492#0 -31492#1 -31492#2 --31648#5 --31648#4 --31648#3 --31648#2 --31648#1 --31648#0 -30528#5 -30528#6 -32924#5 -32924#6 -32924#7 -32924#8 -32924#9 -30660 --32786#4 --32786#3 -30418#3 -30418#4 -30418#5 --30842#4 --30842#3 --30842#2 --30842#1 -32270#3 -30892#16 -30892#17 -30892#18 -30892#19 --30560 --31966#13 --31966#12 --31966#11 --31966#10 --31966#9 --31966#8 --31966#7 --31966#6 --31966#5 --31966#4" />
	<route id="r43" edges="--32442 --32226#3 --32226#2 --32226#1 -31450#0 --32586#2 --32586#1 --32586#0 --31636#0 --30528#45 --30528#44 --30528#43 --30528#42 --30528#41 --30528#40 --30528#39 --30528#38 --30528#37 --30528#36 --30528#35 --30528#34 --30528#33 --30528#32 --30528#31 -32638#0 --30694#7 --30694#6 --30694#5 --30694#4 --30694#3 --30694#2 --30694#1 --30694#0 -31818#22 -31818#23 -32382#1 -32382#2 --32468#7 --32468#6 --32468#5 -32126#0 -30902#11 -31886#3 --32468#3 --32468#2 --32468#1 --32178 -30608#9 -30608#10 -30568 -31232 -31030 -31380#0 -31380#1 -31380#2 --30528#7 -32924#5 -32924#6 -32924#7" />
	<route id="r44" edges="-31200 --30696#1 -30862 --32482#5 --32482#4 --32482#3 --32482#2 --32482#1 --30416#2 --30416#1 --30416#0 -30306#6 -30358#11 --30404#5 --30404#4 --30404#3 --30404#2 --30404#1 --30404#0 -30888#3 -30888#0 -30888#1 -32308#0 -32134 --30844#0 -31578#4 -31578#5 --30624 -32050#3 -32050#4 -31806#0 --31844#5 --31844#4 --31844#3 -31012 --31878#2 --31878#1 --31878#0 -31992#5 --31610#5 --31610#4 --31610#3 --31610#2 --32644#2 --32644#1 --31476 -30892#2 -30298 -30384#3 -30384#4 -30384#5 --31834#1 --31834#0 -30812 -31648#2 -31648#3 -31648#4 -31648#5 --32674#9 --31180#1 --31180#0 -31594#1 -31594#2 -32530#0 --31154" />
	<route id="r45" edges="--32810#2 -30300#1 -31610#3 --31204#2 --30700#2 --30700#1 --30700#0 -31878#1 -31878#2 --31012 -31844#3 -31844#4 -31844#5 --31806#0 -32050#1 -32596#0 -31910#0 -31910#1 -31910#2 -31768#1 -31820#0" />
	<route id="r46" edges="-32870#1 --31590#1 --30828#2 --30828#1 --30828#0 -30802#1 -32776#0 -32776#1 -32776#2 -32776#3 -32776#4 --31878#4 --30564 --31522#2 --31522#1 --30788 -31992#2 -31992#3 -31744#0 -31744#1 -31744#2 -31744#3 -31744#4 -31744#5 --32978#0 -30872#6 -30872#7 -30872#8 -30872#9 -30872#10 --31272#7 -30892#17 -30892#18 -30892#19 --30560 --31966#13 --31966#12 --31966#11 --31966#10 --31966#9 --31966#8 --31966#7 --31966#6 --31966#5 -31772#0 -31772#1 -32730#1 -32730#2 -32730#3 -32730#4 -31084 -32632#1 --30572 -31374#1 -31966#3" />
	<route id="r47" edges="--31552 -31162#3 -31496#0 -31496#1 -31496#2 -31496#3 -31496#4 -31496#5 -31496#6 -31496#7 -31496#8 -31496#9 -31496#10 -31496#11 -31496#12 -31496#13 -31496#14 -32750#0 -32750#1 -32750#2 -32750#3 -32750#4 -32750#5 -32750#6 -32750#7 -32750#8 -32750#9 -32750#10 -32750#11 -32750#12 -30528#5 -30528#6 -30528#7 --31380#2 --31380#1 --31380#0 --31030 --31232 --30568 --30608#10 --30608#9 --30608#8 --30608#7 --30608#6 --30608#5 --30608#4 --30608#3 --30608#2 -30782 --32432#1 --32432#0" />
	<route id="r48" edges="--32230#8 --32230#7 --32230#6 --32230#5 --32230#4 --32230#3 --32230#2 --32230#1 --32230#0 --32224#1 --32224#0 --30654 --32074 -30648#9 -30648#10 -30648#11 -30648#12 -30648#13 -30648#14 -30648#15 -31492#0 -31492#1 -31492#2 --31648#5 --31648#4 --31648#3 --31648#2 --31648#1 --31648#0 -30528#5 -30528#6 -32924#5 -32924#6 -32924#7 -30556 -30892#8 -30892#9 -32924#9 -30660 --32786#4 --32786#3 -30418#3 -30418#4 -30418#5 --30842#4 --30842#3 --30842#2 -31734 -30892#15 -30892#16 -30892#17 -30892#18 -30892#19 --30560 --31966#13 --31966#12 --31966#11 -30354 --32172#8 --32258 --32172#1" />
	<route id="r49" edges="-32866#0 -32866#1 --30590#7 -30406 -31184 -32426#2-AddedOnRampEdge -32426#2 -32426#2-AddedOffRampEdge -32454#0 -32454#1-AddedOnRampEdge -32454#1 -32454#1-AddedOffRampEdge -32860 -32788#2 -32788#3 -32064#0 --30684#2 -30742#0 --30362#1 --30362#0 -30846#0 --31236 -30370#7 --31744#1 --31718#3 --31718#2 --31718#1 --31718#0 --31610#5 --31610#4 --31610#3 --31610#2 --32644#2 --32644#1 --31476 -30892#2 -30298 -30384#3 -30384#4 -30384#5 --31834#1 -30662 -31556" />
	<route id="r50" edges="--30542#1 --30872#11 --30872#10 -31602#0 -31602#1 -31602#2 -31148 -32290 --32028#3 -30520#0 -30520#1 -32886 --30892#8 --30892#7 -32138#0 -30384#1 -30384#2 -30384#3 -30384#4 -30384#5 -30384#6 -30384#7 -31608 -32450 --31504#1 --31504#0 -32574 -30632#0 -30632#1 -32404#0 -32072#0 -30988#0 -31584 -30988#3 --30648#15 --30648#14 --30648#13 -32552#0 -30850#0 -30850#1 -31988 -32052 -32552#3 -32552#4 -32552#5 -32552#6" />
	<route id="r51" edges="--30542#1 --30872#11 --30872#10 -31602#0 -31602#1 -31602#2 -31148 -32290 --32028#3 -30520#0 -30520#1 -32886 --30892#8 --30892#7 -32138#0 -30384#1 -30384#2 -30384#3 -30384#4 -30384#5 -30384#6 -30384#7 -31608 -32450 --31504#1 --31504#0 -32574 -30632#0 -30632#1 -32404#0 -32072#0 -30988#0 -31584 -30988#3 --30648#15 --30648#14 --30648#13 -32552#0 -30850#0 -30850#1 -30850#2 -30850#3 -30850#4 -32842#0" />
	<route id="r52" edges="-30668#0 -30668#0-AddedOffRampEdge -30668#1 -30668#2-AddedOnRampEdge -30668#2 -30668#2-AddedOffRampEdge -31614 -30924#4 -30924#1 -31372 -32830#1 --31940#6 --32238 -31930#1 -32464 --31668#1 --31668#0 -32776#3 --31844#3 -31012 --31878#2 --31878#1 --31878#0 -31992#5 --31610#5 --31610#4 --31610#3 --31610#2 --32644#2 --32644#1 --31476 -30892#2 -30298 -30384#3 -30384#4 -30384#5 --31834#1 --31834#0 -30812 -31648#2 -31648#3 -31648#4 -31648#5 --32674#9" />
	<route id="r53" edges="--30542#1 --30872#11 --30872#10 --30872#9 -32786#0 -31564#4 --30262#2 --30262#1 --30262#0 --32924#12 --32924#11 -30520#1 -30520#2 -32750#9 --30892#5 --30892#4 --30892#3 --30892#2 --30892#1 --30892#0 -30892 -30724#0 -30724#1 -31470#0 -31190 --32458#2 --32458#1 --32000 -30646#6 -32030 --32652#5 --32652#4 --31274#1 --31274#0 -32002 -31892#0 -31758 -32370 -30860#7 -30860#8 -30860#9 -30860#10 --32200#0" />
	<route id="r54" edges="--30860#5 --30860#4 --30860#3 --30860#2 --30860#1 --30860#0 --30632#1 --30632#0 -30338 -31056#0 -31056#1 --30646#0 -31504#2 -30962#0 -30962#1 -30962#2 --30892 -30892#0 -30892#1 -30892#2 -30892#3 -32016 -32644#2 -31610#2 -31610#3 -31610#4 -31610#5 -31718#0 -31718#1 -31718#2 -31718#3 -31744#1 --30370#7 --30370#6 --30370#5 -31748#2 -31748#3 --31496#13 -32366#0 -32366#1 -31706#0 -31706#1 -32106#0 -32106#1 -31118#2 -32896 -32102 -32746#1 -31842 -32428#0 -32428#1" />
	<route id="r55" edges="--31552 -31162#3 -31496#0 -31496#1 -31496#2 -31496#3 -31496#4 -31496#5 --32664#2 --32664#1 --32664#0 --31118#2 --31118#1 --31118#0 -32784#2 --32064#2 --32064#1 --30684#2 -30742#0 -30742#1 -30742#2 -30872#7 -30872#8 -30872#9" />
	<route id="r56" edges="--30542#1 --30872#11 --30872#10 -31602#0 -31602#1 -31602#2 -31148 -32290 -32786#4 -32786#5 --30892#10 --32924#8 --32924#7 -30384#0 -30384#1 -30384#2 -30384#3 -30384#4 -30384#5 -30384#6 --31838#1 --31838#0 -32486#1 --31056#2 -30646#1 -30646#2 -30646#3 --32458#3" />
	<route id="r57" edges="-30762#0 -30762#1 --31452#0 -32952#1 --31462#3 --31462#2 --31462#1 --31462#0 -31680#1 -31680#2 --30892#26 --30892#25 --30892#24 --30892#23 --30892#22 --30892#21 --30892#20 --30892#19 --30892#18 --30892#17 --30892#16 --32270#3 -30842#1 -30842#2 -30842#3 -30842#4 --30418#5 -32290 --32028#3 -30520#0 -30520#1 -30520#2 -32750#9 -32750#10 -30384#2 -30384#3 -30384#4 -30384#5 -30384#6 --31838#1 --31838#0 -32486#1 --31056#2 --31056#1 --31208#1 -30796 --32652#8 --32652#7" />
	<route id="r58" edges="--30542#1 --30872#11 --30872#10 -31602#0 -31564#2 -31564#3 -31564#4 --30262#2 --30262#1 --30262#0 --32924#12 --32924#11 -30520#1 -30520#2 -32750#9 -32750#10 -30384#2 -30384#3 -30384#4 -30384#5 -30384#6 -30384#7 -30944 --31504#2 --31504#1 --31504#0 -30620 --32278#6 -32974#1 -30766#4 -30766#5 -30766#6 -30766#7 -30766#8" />
	<route id="r59" edges="--30542#1 --30872#11 --30872#10 -31602#0 -31564#2 -31564#3 -31564#4 -31564#5 -30770#1 -30770#2 -30770#3 -32818#0 -32818#1 -32818#2 --32750#6 --32750#5 --32750#4" />
	<route id="r60" edges="--32010#1 --30442#1 -32864#1 -30610#1 -32974#0 -32278#6 --30620 -31504#0 -31504#1 -31504#2 -30962#0 -30962#1 -30962#2 --30892 -30892#0 -30892#1 -30892#2 -30892#3 -30892#4 -31610#0 --32818#4 --32810#2 --32810#1 -30822#0 -30822#1 -30822#2 --30846#3 --30846#2 -31744#3 -31744#4 --32598#0 --31784#2 --31784#1 --31784#0 -30684#1 -30684#2 --32064#0 -32788#4 -30326 -32858#1-AddedOnRampEdge -32858#1 -32858#1-AddedOffRampEdge -32858#2 -31366#0-AddedOnRampEdge -31366#0 -31366#1-AddedOnRampEdge -31366#1 -31366#1-AddedOffRampEdge -32678 -32566 -30590#4 -30590#5 -30590#6 -30590#7 -30590#8" />
	<route id="r61" edges="-32596#1 --31414#1 -32328 --31906#4 -31518#0 --30956 --32254#0 --31906#5 --32328 -31414#1 --32596#1 --32596#0 -32050#2 -32050#3 -32050#4 -31806#0 --31844#5 --31844#4 --31844#3 -31012 --31878#2 --31878#1 --31878#0 -30872#0 --31718#2 --30822#3 --30822#2 -32810#0 -32810#1 -32810#2 --32818#3 --32818#2 --32818#1 --32818#0 --32924#13 --32924#12 --32924#11 --32924#10 --32924#9" />
	<route id="r62" edges="--30928 -32652#4 --30940 --30646#7 --30646#6 -32000 -32458#1 -32458#2 --31190 -31470#1 -31318 -31952#17 -31952#18 --31812 -30582#0 -30582#1 --31152#1 -31204#0 -31204#1 -31204#2 --31610#3 --31610#2 --31610#1 --32818#4 --32818#3 --32818#2 --32818#1 --32818#0 --32924#13 -30262#0 -30262#1 -30418#1 -30418#2 -30418#3 -30418#4 -30418#5 --30842#4 --30842#3 --30842#2 -31734 -30892#15 -30892#16 -30892#17 -30892#18 -30892#19 -30892#20 -30892#21 --31066#7 --31066#6 -30552 --32618#1 --32618#0 --31066#2 --31066#1 --31340#4 --30562#2 --30740#1 --30740#0 --31214#0" />
	<route id="r63" edges="--30860#8 --30860#7 --32370 --31758 -31892#1 -31390 -31274#0 -31274#1 -32652#4 -32652#5 --32030 --30646#6 -32000 -32458#1 -32458#2 --31190 -31470#1 -31318 -31952#17 -31952#18 --31812 -30582#0 -30582#1 --31152#1 -31204#0 -31204#1 -31204#2 --31610#3 --31610#2 --31610#1 --32818#4 --32818#3 --32818#2 --32818#1 --32818#0 --32924#13 -30262#0 -30262#1 -30418#1 -30418#2 -30418#3 -30418#4 -30418#5 --30842#4 --30842#3 --30842#2 -31734 -30892#15 -30892#16 -30892#17 -30892#18 -30892#19 --30560 --31966#13 --31966#12 --31966#11 --31966#10 --31966#9 --31966#8 --31966#7 --31966#6 --31966#5 -31772#0 --32128" />