<?xml version='1.0' encoding='utf-8'?>
<additional>
	<vType id="CarDefault" accel="3.0" decel="6.0" length="5.0" minGap="2.5" maxSpeed="50.0" sigma="0.5" />
	<vehicle id="carIn26550:1" type="CarDefault" depart="25202.00" departPos="random" departSpeed="0.00" arrivalPos="random" arrivalSpeed="0.00" route="r0" />
	<vehicle id="h26108c1:1" type="CarDefault" depart="25207.00" departPos="random" departSpeed="0.00" arrivalPos="random" arrivalSpeed="0.00" route="r1" />
	<vehicle id="h58608c1:1" type="CarDefault" depart="25211.00" departPos="random" departSpeed="0.00" arrivalPos="random" arrivalSpeed="0.00" route="r2" />
	<vehicle id="carIn28981:1" type="CarDefault" depart="25213.00" departPos="random" departSpeed="0.00" arrivalPos="random" arrivalSpeed="0.00" route="r3" />
	<vehicle id="h20142c1:1" type="CarDefault" depart="25213.00" departPos="random" departSpeed="0.00" arrivalPos="random" arrivalSpeed="0.00" route="r4" />
	<vehicle id="carIn16471:1" type="CarDefault" depart="25222.00" departPos="random" departSpeed="0.00" arrivalPos="random" arrivalSpeed="0.00" route="r5" />
	<vehicle id="h23837c1:1" type="CarDefault" depart="25224.00" departPos="random" departSpeed="0.00" arrivalPos="random" arrivalSpeed="0.00" route="r6" />
	<vehicle id="h43981c1:1" type="CarDefault" depart="25224.00" departPos="random" departSpeed="0.00" arrivalPos="random" arrivalSpeed="0.00" route="r7" />
	<vehicle id="carIn10938:1" type="CarDefault" depart="25225.00" departPos="random" departSpeed="0.00" arrivalPos="random" arrivalSpeed="0.00" route="r8" />
	<vehicle id="carIn20076:1" type="CarDefault" depart="25226.00" departPos="random" departSpeed="0.00" arrivalPos="random" arrivalSpeed="0.00" route="r9" />
	<vehicle id="h35355c1:1" type="CarDefault" depart="25226.00" departPos="random" departSpeed="0.00" arrivalPos="random" arrivalSpeed="0.00" route="r10" />
	<vehicle id="carIn19361:1" type="CarDefault" depart="25230.00" departPos="random" departSpeed="0.00" arrivalPos="random" arrivalSpeed="0.00" route="r11" />
	<vehicle id="carIn35520:1" type="CarDefault" depart="25230.00" departPos="random" departSpeed="0.00" arrivalPos="random" arrivalSpeed="0.00" route="r12" />
	<vehicle id="carIn13506:1" type="CarDefault" depart="25232.00" departPos="random" departSpeed="0.00" arrivalPos="random" arrivalSpeed="0.00" route="r13" />
	<vehicle id="h17823c1:1" type="CarDefault" depart="25233.00" departPos="random" departSpeed="0.00" arrivalPos="random" arrivalSpeed="0.00" route="r14" />
	<vehicle id="carIn23306:1" type="CarDefault" depart="25234.00" departPos="random" departSpeed="0.00" arrivalPos="random" arrivalSpeed="0.00" route="r15" />
	<vehicle id="carIn25666:1" type="CarDefault" depart="25234.00" departPos="random" departSpeed="0.00" arrivalPos="random" arrivalSpeed="0.00" route="r16" />
	<vehicle id="carIn29748:1" type="CarDefault" depart="25234.00" departPos="random" departSpeed="0.00" arrivalPos="random" arrivalSpeed="0.00" route="r17" />
	<vehicle id="carIn17778:1" type="CarDefault" depart="25237.00" departPos="random" departSpeed="0.00" arrivalPos="random" arrivalSpeed="0.00" route="r18" />
	<vehicle id="h16428c1:1" type="CarDefault" depart="25237.00" departPos="random" departSpeed="0.00" arrivalPos="random" arrivalSpeed="0.00" route="r19" />
	<vehicle id="h54734c2:1" type="CarDefault" depart="25239.00" departPos="random" departSpeed="0.00" arrivalPos="random" arrivalSpeed="0.00" route="r20" />
	<vehicle id="h38933c1:1" type="CarDefault" depart="25242.00" departPos="random" departSpeed="0.00" arrivalPos="random" arrivalSpeed="0.00" route="r21" />
	<vehicle id="carIn12442:1" type="CarDefault" depart="25243.00" departPos="random" departSpeed="0.00" arrivalPos="random" arrivalSpeed="0.00" route="r22" />
	<vehicle id="h56110c1:1" type="CarDefault" depart="25245.00" departPos="random" departSpeed="0.00" arrivalPos="random" arrivalSpeed="0.00" route="r23" />
	<vehicle id="h31026c2:1" type="CarDefault" depart="25246.00" departPos="random" departSpeed="0.00" arrivalPos="random" arrivalSpeed="0.00" route="r24" />
	<vehicle id="h39284c1:1" type="CarDefault" depart="25247.00" departPos="random" departSpeed="0.00" arrivalPos="random" arrivalSpeed="0.00" route="r25" />
	<vehicle id="h35977c1:1" type="CarDefault" depart="25248.00" departPos="random" departSpeed="0.00" arrivalPos="random" arrivalSpeed="0.00" route="r26" />
	<vehicle id="h72495c2:1" type="CarDefault" depart="25248.00" departPos="random" departSpeed="0.00" arrivalPos="random" arrivalSpeed="0.00" route="r27" />
	<vehicle id="h10772c1:1" type="CarDefault" depart="25252.00" departPos="random" departSpeed="0.00" arrivalPos="random" arrivalSpeed="0.00" route="r28" />
	<vehicle id="h71582c1:1" type="CarDefault" depart="25253.00" departPos="random" departSpeed="0.00" arrivalPos="random" arrivalSpeed="0.00" route="r29" />
	<vehicle id="h16118c1:1" type="CarDefault" depart="25255.00" departPos="random" departSpeed="0.00" arrivalPos="random" arrivalSpeed="0.00" route="r30" />
	<vehicle id="h37713c1:1" type="CarDefault" depart="25255.00" departPos="random" departSpeed="0.00" arrivalPos="random" arrivalSpeed="0.00" route="r31" />
	<vehicle id="carIn12879:1" type="CarDefault" depart="25256.00" departPos="random" departSpeed="0.00" arrivalPos="random" arrivalSpeed="0.00" route="r32" />
	<vehicle id="carIn31025:1" type="CarDefault" depart="25256.00" departPos="random" departSpeed="0.00" arrivalPos="random" arrivalSpeed="0.00" route="r33" />
	<vehicle id="h54803c1:1" type="CarDefault" depart="25260.00" departPos="random" departSpeed="0.00" arrivalPos="random" arrivalSpeed="0.00" route="r34" />
	<vehicle id="h23086c1:1" type="CarDefault" depart="25263.00" departPos="random" departSpeed="0.00" arrivalPos="random" arrivalSpeed="0.00" route="r35" />
	<vehicle id="h66913c1:1" type="CarDefault" depart="25263.00" departPos="random" departSpeed="0.00" arrivalPos="random" arrivalSpeed="0.00" route="r36" />
	<vehicle id="carIn22318:1" type="CarDefault" depart="25265.00" departPos="random" departSpeed="0.00" arrivalPos="random" arrivalSpeed="0.00" route="r37" />
	<vehicle id="carIn4865:1" type="CarDefault" depart="25265.00" departPos="random" departSpeed="0.00" arrivalPos="random" arrivalSpeed="0.00" route="r38" />
	<vehicle id="carIn1258:1" type="CarDefault" depart="25270.00" departPos="random" departSpeed="0.00" arrivalPos="random" arrivalSpeed="0.00" route="r39" />
	<vehicle id="h50332c1:1" type="CarDefault" depart="25270.00" departPos="random" departSpeed="0.00" arrivalPos="random" arrivalSpeed="0.00" route="r40" />
	<vehicle id="carIn15930:1" type="CarDefault" depart="25271.00" departPos="random" departSpeed="0.00" arrivalPos="random" arrivalSpeed="0.00" route="r41" />
	<vehicle id="carIn2019:1" type="CarDefault" depart="25273.00" departPos="random" departSpeed="0.00" arrivalPos="random" arrivalSpeed="0.00" route="r42" />
	<vehicle id="carIn45980:1" type="CarDefault" depart="25274.00" departPos="random" departSpeed="0.00" arrivalPos="random" arrivalSpeed="0.00" route="r43" />
	<vehicle id="h42018c1:1" type="CarDefault" depart="25275.00" departPos="random" departSpeed="0.00" arrivalPos="random" arrivalSpeed="0.00" route="r44" />
	<vehicle id="h33872c1:1" type="CarDefault" depart="25278.00" departPos="random" departSpeed="0.00" arrivalPos="random" arrivalSpeed="0.00" route="r45" />
	<vehicle id="h73288c2:1" type="CarDefault" depart="25280.00" departPos="random" departSpeed="0.00" arrivalPos="random" arrivalSpeed="0.00" route="r46" />
	<vehicle id="carIn10159:1" type="CarDefault" depart="25281.00" departPos="random" departSpeed="0.00" arrivalPos="random" arrivalSpeed="0.00" route="r47" />
	<vehicle id="carIn38471:1" type="CarDefault" depart="25281.00" departPos="random" departSpeed="0.00" arrivalPos="random" arrivalSpeed="0.00" route="r48" />
	<vehicle id="carIn12678:1" type="CarDefault" depart="25283.00" departPos="random" departSpeed="0.00" arrivalPos="random" arrivalSpeed="0.00" route="r49" />
	<vehicle id="carIn33414:1" type="CarDefault" depart="25284.00" departPos="random" departSpeed="0.00" arrivalPos="random" arrivalSpeed="0.00" route="r50" />
	<vehicle id="carIn12807:1" type="CarDefault" depart="25287.00" departPos="random" departSpeed="0.00" arrivalPos="random" arrivalSpeed="0.00" route="r51" />
	<vehicle id="carIn18595:1" type="CarDefault" depart="25292.00" departPos="random" departSpeed="0.00" arrivalPos="random" arrivalSpeed="0.00" route="r52" />
	<vehicle id="carIn2033:1" type="CarDefault" depart="25296.00" departPos="random" departSpeed="0.00" arrivalPos="random" arrivalSpeed="0.00" route="r53" />
	<vehicle id="randUni6369:1" type="CarDefault" depart="25297.00" departPos="random" departSpeed="0.00" arrivalPos="random" arrivalSpeed="0.00" route="r54" />
	<vehicle id="carIn45755:1" type="CarDefault" depart="25298.00" departPos="random" departSpeed="0.00" arrivalPos="random" arrivalSpeed="0.00" route="r55" />
	<vehicle id="carIn48179:1" type="CarDefault" depart="25298.00" departPos="random" departSpeed="0.00" arrivalPos="random" arrivalSpeed="0.00" route="r56" />
	<vehicle id="carIn19952:1" type="CarDefault" depart="25299.00" departPos="random" departSpeed="0.00" arrivalPos="random" arrivalSpeed="0.00" route="r57" />
	<vehicle id="carIn20467:1" type="CarDefault" depart="25303.00" departPos="random" departSpeed="0.00" arrivalPos="random" arrivalSpeed="0.00" route="r58" />
	<vehicle id="carIn33983:1" type="CarDefault" depart="25303.00" departPos="random" departSpeed="0.00" arrivalPos="random" arrivalSpeed="0.00" route="r59" />
	<vehicle id="h23710c1:1" type="CarDefault" depart="25304.00" departPos="random" departSpeed="0.00" arrivalPos="random" arrivalSpeed="0.00" route="r60" />
	<vehicle id="h69406c1:1" type="CarDefault" depart="25307.00" departPos="random" departSpeed="0.00" arrivalPos="random" arrivalSpeed="0.00" route="r61" />
	<vehicle id="h9344c1:1" type="CarDefault" depart="25307.00" departPos="random" departSpeed="0.00" arrivalPos="random" arrivalSpeed="0.00" route="r62" />
	<vehicle id="h8360c2:1" type="CarDefault" depart="25310.00" departPos="random" departSpeed="0.00" arrivalPos="random" arrivalSpeed="0.00" route="r63" />
	<vehicle id="carIn12116:1" type="CarDefault" depart="25311.00" departPos="random" departSpeed="0.00" arrivalPos="random" arrivalSpeed="0.00" route="r64" />
	<vehicle id="randUni19764:1" type="CarDefault" depart="25312.00" departPos="random" departSpeed="0.00" arrivalPos="random" arrivalSpeed="0.00" route="r65" />
	<vehicle id="h27547c1:1" type="CarDefault" depart="25313.00" departPos="random" departSpeed="0.00" arrivalPos="random" arrivalSpeed="0.00" route="r66" />
	<vehicle id="h56957c1:1" type="CarDefault" depart="25315.00" departPos="random" departSpeed="0.00" arrivalPos="random" arrivalSpeed="0.00" route="r67" />
	<vehicle id="carIn32235:1" type="CarDefault" depart="25317.00" departPos="random" departSpeed="0.00" arrivalPos="random" arrivalSpeed="0.00" route="r68" />
	<vehicle id="h23169c2:1" type="CarDefault" depart="25318.00" departPos="random" departSpeed="0.00" arrivalPos="random" arrivalSpeed="0.00" route="r69" />
	<vehicle id="h37403c1:1" type="CarDefault" depart="25318.00" departPos="random" departSpeed="0.00" arrivalPos="random" arrivalSpeed="0.00" route="r70" />
	<vehicle id="h67961c2:1" type="CarDefault" depart="25318.00" departPos="random" departSpeed="0.00" arrivalPos="random" arrivalSpeed="0.00" route="r71" />
	<vehicle id="randUni8114:1" type="CarDefault" depart="25319.00" departPos="random" departSpeed="0.00" arrivalPos="random" arrivalSpeed="0.00" route="r72" />
	<vehicle id="carIn44253:1" type="CarDefault" depart="25320.00" departPos="random" departSpeed="0.00" arrivalPos="random" arrivalSpeed="0.00" route="r73" />
	<vehicle id="h26391c1:1" type="CarDefault" depart="25322.00" departPos="random" departSpeed="0.00" arrivalPos="random" arrivalSpeed="0.00" route="r74" />
	<vehicle id="h4698c1:1" type="CarDefault" depart="25322.00" departPos="random" departSpeed="0.00" arrivalPos="random" arrivalSpeed="0.00" route="r75" />
	<vehicle id="carIn18796:1" type="CarDefault" depart="25327.00" departPos="random" departSpeed="0.00" arrivalPos="random" arrivalSpeed="0.00" route="r76" />
	<vehicle id="carIn8971:1" type="CarDefault" depart="25328.00" departPos="random" departSpeed="0.00" arrivalPos="random" arrivalSpeed="0.00" route="r77" />
	<vehicle id="carIn19936:1" type="CarDefault" depart="25330.00" departPos="random" departSpeed="0.00" arrivalPos="random" arrivalSpeed="0.00" route="r78" />
	<vehicle id="carIn24814:1" type="CarDefault" depart="25330.00" departPos="random" departSpeed="0.00" arrivalPos="random" arrivalSpeed="0.00" route="r79" />
	<vehicle id="carIn25648:1" type="CarDefault" depart="25330.00" departPos="random" departSpeed="0.00" arrivalPos="random" arrivalSpeed="0.00" route="r80" />
	<vehicle id="carIn3675:1" type="CarDefault" depart="25330.00" departPos="random" departSpeed="0.00" arrivalPos="random" arrivalSpeed="0.00" route="r81" />
	<vehicle id="carIn47406:1" type="CarDefault" depart="25330.00" departPos="random" departSpeed="0.00" arrivalPos="random" arrivalSpeed="0.00" route="r82" />
	<vehicle id="randUni12895:1" type="CarDefault" depart="25330.00" departPos="random" departSpeed="0.00" arrivalPos="random" arrivalSpeed="0.00" route="r83" />
	<vehicle id="carIn28703:1" type="CarDefault" depart="25331.00" departPos="random" departSpeed="0.00" arrivalPos="random" arrivalSpeed="0.00" route="r84" />
	<vehicle id="h17695c2:1" type="CarDefault" depart="25334.00" departPos="random" departSpeed="0.00" arrivalPos="random" arrivalSpeed="0.00" route="r85" />
	<vehicle id="carIn6097:1" type="CarDefault" depart="25338.00" departPos="random" departSpeed="0.00" arrivalPos="random" arrivalSpeed="0.00" route="r86" />
	<vehicle id="h11824c1:3" type="CarDefault" depart="25338.00" departPos="random" departSpeed="0.00" arrivalPos="random" arrivalSpeed="0.00" route="r87" />
	<vehicle id="carIn3810:1" type="CarDefault" depart="25339.00" departPos="random" departSpeed="0.00" arrivalPos="random" arrivalSpeed="0.00" route="r88" />
	<vehicle id="h40504c1:1" type="CarDefault" depart="25339.00" departPos="random" departSpeed="0.00" arrivalPos="random" arrivalSpeed="0.00" route="r89" />
	<vehicle id="carIn31578:1" type="CarDefault" depart="25340.00" departPos="random" departSpeed="0.00" arrivalPos="random" arrivalSpeed="0.00" route="r90" />
	<vehicle id="carIn40346:1" type="CarDefault" depart="25343.00" departPos="random" departSpeed="0.00" arrivalPos="random" arrivalSpeed="0.00" route="r91" />
	<vehicle id="randUni12824:1" type="CarDefault" depart="25343.00" departPos="random" departSpeed="0.00" arrivalPos="random" arrivalSpeed="0.00" route="r92" />
	<vehicle id="carIn4863:1" type="CarDefault" depart="25344.00" departPos="random" departSpeed="0.00" arrivalPos="random" arrivalSpeed="0.00" route="r93" />
	<vehicle id="h26926c2:1" type="CarDefault" depart="25347.00" departPos="random" departSpeed="0.00" arrivalPos="random" arrivalSpeed="0.00" route="r94" />
	<vehicle id="h51649c2:1" type="CarDefault" depart="25350.00" departPos="random" departSpeed="0.00" arrivalPos="random" arrivalSpeed="0.00" route="r95" />
	<vehicle id="carIn6067:1" type="CarDefault" depart="25351.00" departPos="random" departSpeed="0.00" arrivalPos="random" arrivalSpeed="0.00" route="r96" />
	<vehicle id="carIn14469:1" type="CarDefault" depart="25353.00" departPos="random" departSpeed="0.00" arrivalPos="random" arrivalSpeed="0.00" route="r97" />
	<vehicle id="carIn6861:1" type="CarDefault" depart="25353.00" departPos="random" departSpeed="0.00" arrivalPos="random" arrivalSpeed="0.00" route="r98" />
	<vehicle id="carIn12851:1" type="CarDefault" depart="25354.00" departPos="random" departSpeed="0.00" arrivalPos="random" arrivalSpeed="0.00" route="r99" />
	<vehicle id="h45628c1:1" type="CarDefault" depart="25355.00" departPos="random" departSpeed="0.00" arrivalPos="random" arrivalSpeed="0.00" route="r100" />
	<vehicle id="carIn10332:1" type="CarDefault" depart="25358.00" departPos="random" departSpeed="0.00" arrivalPos="random" arrivalSpeed="0.00" route="r101" />
	<vehicle id="carIn34360:1" type="CarDefault" depart="25358.00" departPos="random" departSpeed="0.00" arrivalPos="random" arrivalSpeed="0.00" route="r102" />
	<vehicle id="carIn17693:1" type="CarDefault" depart="25359.00" departPos="random" departSpeed="0.00" arrivalPos="random" arrivalSpeed="0.00" route="r103" />
	<vehicle id="carIn21358:1" type="CarDefault" depart="25361.00" departPos="random" departSpeed="0.00" arrivalPos="random" arrivalSpeed="0.00" route="r104" />
	<vehicle id="h55872c1:1" type="CarDefault" depart="25362.00" departPos="random" departSpeed="0.00" arrivalPos="random" arrivalSpeed="0.00" route="r105" />
	<vehicle id="h68188c1:1" type="CarDefault" depart="25363.00" departPos="random" departSpeed="0.00" arrivalPos="random" arrivalSpeed="0.00" route="r106" />
	<vehicle id="h62729c1:1" type="CarDefault" depart="25364.00" departPos="random" departSpeed="0.00" arrivalPos="random" arrivalSpeed="0.00" route="r107" />
	<vehicle id="carIn3153:1" type="CarDefault" depart="25365.00" departPos="random" departSpeed="0.00" arrivalPos="random" arrivalSpeed="0.00" route="r108" />
	<vehicle id="h21003c1:1" type="CarDefault" depart="25365.00" departPos="random" departSpeed="0.00" arrivalPos="random" arrivalSpeed="0.00" route="r109" />
	<vehicle id="carIn33799:1" type="CarDefault" depart="25366.00" departPos="random" departSpeed="0.00" arrivalPos="random" arrivalSpeed="0.00" route="r110" />
	<vehicle id="h63841c1:1" type="CarDefault" depart="25367.00" departPos="random" departSpeed="0.00" arrivalPos="random" arrivalSpeed="0.00" route="r111" />
	<vehicle id="h57352c1:1" type="CarDefault" depart="25369.00" departPos="random" departSpeed="0.00" arrivalPos="random" arrivalSpeed="0.00" route="r112" />
	<vehicle id="h7080c1:1" type="CarDefault" depart="25376.00" departPos="random" departSpeed="0.00" arrivalPos="random" arrivalSpeed="0.00" route="r113" />
	<vehicle id="carIn44848:1" type="CarDefault" depart="25378.00" departPos="random" departSpeed="0.00" arrivalPos="random" arrivalSpeed="0.00" route="r114" />
	<vehicle id="h23839c1:1" type="CarDefault" depart="25380.00" departPos="random" departSpeed="0.00" arrivalPos="random" arrivalSpeed="0.00" route="r115" />
	<vehicle id="carIn32186:1" type="CarDefault" depart="25381.00" departPos="random" departSpeed="0.00" arrivalPos="random" arrivalSpeed="0.00" route="r116" />
	<vehicle id="randUni7816:1" type="CarDefault" depart="25381.00" departPos="random" departSpeed="0.00" arrivalPos="random" arrivalSpeed="0.00" route="r117" />
	<vehicle id="carIn20909:1" type="CarDefault" depart="25382.00" departPos="random" departSpeed="0.00" arrivalPos="random" arrivalSpeed="0.00" route="r118" />
	<vehicle id="h47585c1:1" type="CarDefault" depart="25382.00" departPos="random" departSpeed="0.00" arrivalPos="random" arrivalSpeed="0.00" route="r119" />
	<vehicle id="h7078c1:1" type="CarDefault" depart="25382.00" departPos="random" departSpeed="0.00" arrivalPos="random" arrivalSpeed="0.00" route="r120" />
	<vehicle id="carIn133:1" type="CarDefault" depart="25383.00" departPos="random" departSpeed="0.00" arrivalPos="random" arrivalSpeed="0.00" route="r121" />
	<vehicle id="carIn1175:1" type="CarDefault" depart="25384.00" departPos="random" departSpeed="0.00" arrivalPos="random" arrivalSpeed="0.00" route="r122" />
	<vehicle id="carIn48573:1" type="CarDefault" depart="25384.00" departPos="random" departSpeed="0.00" arrivalPos="random" arrivalSpeed="0.00" route="r123" />
	<vehicle id="carIn35939:1" type="CarDefault" depart="25385.00" departPos="random" departSpeed="0.00" arrivalPos="random" arrivalSpeed="0.00" route="r124" />
	<vehicle id="h29063c1:3" type="CarDefault" depart="25388.00" departPos="random" departSpeed="0.00" arrivalPos="random" arrivalSpeed="0.00" route="r125" />
	<vehicle id="h57073c1:1" type="CarDefault" depart="25388.00" departPos="random" departSpeed="0.00" arrivalPos="random" arrivalSpeed="0.00" route="r126" />
	<vehicle id="carIn37890:1" type="CarDefault" depart="25389.00" departPos="random" departSpeed="0.00" arrivalPos="random" arrivalSpeed="0.00" route="r127" />
	<vehicle id="carIn39304:1" type="CarDefault" depart="25389.00" departPos="random" departSpeed="0.00" arrivalPos="random" arrivalSpeed="0.00" route="r128" />
	<vehicle id="carIn2153:1" type="CarDefault" depart="25391.00" departPos="random" departSpeed="0.00" arrivalPos="random" arrivalSpeed="0.00" route="r129" />
	<vehicle id="carIn32119:1" type="CarDefault" depart="25392.00" departPos="random" departSpeed="0.00" arrivalPos="random" arrivalSpeed="0.00" route="r130" />
	<vehicle id="carIn7625:1" type="CarDefault" depart="25398.00" departPos="random" departSpeed="0.00" arrivalPos="random" arrivalSpeed="0.00" route="r131" />
	<vehicle id="h43589c1:1" type="CarDefault" depart="25399.00" departPos="random" departSpeed="0.00" arrivalPos="random" arrivalSpeed="0.00" route="r132" />
	<vehicle id="h17153c1:1" type="CarDefault" depart="25402.00" departPos="random" departSpeed="0.00" arrivalPos="random" arrivalSpeed="0.00" route="r133" />
	<vehicle id="randUni9261:1" type="CarDefault" depart="25402.00" departPos="random" departSpeed="0.00" arrivalPos="random" arrivalSpeed="0.00" route="r134" />
	<vehicle id="carIn39377:1" type="CarDefault" depart="25404.00" departPos="random" departSpeed="0.00" arrivalPos="random" arrivalSpeed="0.00" route="r135" />
	<vehicle id="carIn48549:1" type="CarDefault" depart="25404.00" departPos="random" departSpeed="0.00" arrivalPos="random" arrivalSpeed="0.00" route="r136" />
	<vehicle id="carIn1571:1" type="CarDefault" depart="25406.00" departPos="random" departSpeed="0.00" arrivalPos="random" arrivalSpeed="0.00" route="r137" />
	<vehicle id="carIn23256:1" type="CarDefault" depart="25406.00" departPos="random" departSpeed="0.00" arrivalPos="random" arrivalSpeed="0.00" route="r138" />
	<vehicle id="h33018c1:1" type="CarDefault" depart="25406.00" departPos="random" departSpeed="0.00" arrivalPos="random" arrivalSpeed="0.00" route="r139" />
	<vehicle id="carIn28777:1" type="CarDefault" depart="25407.00" departPos="random" departSpeed="0.00" arrivalPos="random" arrivalSpeed="0.00" route="r140" />
	<vehicle id="carIn31924:1" type="CarDefault" depart="25411.00" departPos="random" departSpeed="0.00" arrivalPos="random" arrivalSpeed="0.00" route="r141" />
	<vehicle id="carIn27550:1" type="CarDefault" depart="25412.00" departPos="random" departSpeed="0.00" arrivalPos="random" arrivalSpeed="0.00" route="r142" />
	<vehicle id="h61802c1:1" type="CarDefault" depart="25413.00" departPos="random" departSpeed="0.00" arrivalPos="random" arrivalSpeed="0.00" route="r143" />
	<vehicle id="carIn23938:1" type="CarDefault" depart="25414.00" departPos="random" departSpeed="0.00" arrivalPos="random" arrivalSpeed="0.00" route="r144" />
	<vehicle id="carIn9730:1" type="CarDefault" depart="25419.00" departPos="random" departSpeed="0.00" arrivalPos="random" arrivalSpeed="0.00" route="r145" />
	<vehicle id="h14700c1:1" type="CarDefault" depart="25419.00" departPos="random" departSpeed="0.00" arrivalPos="random" arrivalSpeed="0.00" route="r146" />
	<vehicle id="carIn38011:1" type="CarDefault" depart="25420.00" departPos="random" departSpeed="0.00" arrivalPos="random" arrivalSpeed="0.00" route="r147" />
	<vehicle id="carIn31012:1" type="CarDefault" depart="25421.00" departPos="random" departSpeed="0.00" arrivalPos="random" arrivalSpeed="0.00" route="r148" />
	<vehicle id="carIn49805:1" type="CarDefault" depart="25421.00" departPos="random" departSpeed="0.00" arrivalPos="random" arrivalSpeed="0.00" route="r149" />
	<vehicle id="h72498c1:1" type="CarDefault" depart="25422.00" departPos="random" departSpeed="0.00" arrivalPos="random" arrivalSpeed="0.00" route="r150" />
	<vehicle id="h61919c2:1" type="CarDefault" depart="25424.00" departPos="random" departSpeed="0.00" arrivalPos="random" arrivalSpeed="0.00" route="r151" />
	<vehicle id="carIn33467:1" type="CarDefault" depart="25428.00" departPos="random" departSpeed="0.00" arrivalPos="random" arrivalSpeed="0.00" route="r152" />
	<vehicle id="h7058c1:1" type="CarDefault" depart="25430.00" departPos="random" departSpeed="0.00" arrivalPos="random" arrivalSpeed="0.00" route="r153" />
	<vehicle id="carIn38657:1" type="CarDefault" depart="25431.00" departPos="random" departSpeed="0.00" arrivalPos="random" arrivalSpeed="0.00" route="r154" />
	<vehicle id="carIn6920:1" type="CarDefault" depart="25431.00" departPos="random" departSpeed="0.00" arrivalPos="random" arrivalSpeed="0.00" route="r155" />
	<vehicle id="carIn1291:1" type="CarDefault" depart="25432.00" departPos="random" departSpeed="0.00" arrivalPos="random" arrivalSpeed="0.00" route="r156" />
	<vehicle id="h54370c1:1" type="CarDefault" depart="25432.00" departPos="random" departSpeed="0.00" arrivalPos="random" arrivalSpeed="0.00" route="r157" />
	<vehicle id="h67529c1:1" type="CarDefault" depart="25432.00" departPos="random" departSpeed="0.00" arrivalPos="random" arrivalSpeed="0.00" route="r158" />
	<vehicle id="carIn41898:1" type="CarDefault" depart="25435.00" departPos="random" departSpeed="0.00" arrivalPos="random" arrivalSpeed="0.00" route="r159" />
	<vehicle id="carIn4687:1" type="CarDefault" depart="25437.00" departPos="random" departSpeed="0.00" arrivalPos="random" arrivalSpeed="0.00" route="r160" />
	<vehicle id="carIn33660:1" type="CarDefault" depart="25438.00" departPos="random" departSpeed="0.00" arrivalPos="random" arrivalSpeed="0.00" route="r161" />
	<vehicle id="carIn11329:1" type="CarDefault" depart="25442.00" departPos="random" departSpeed="0.00" arrivalPos="random" arrivalSpeed="0.00" route="r162" />
	<vehicle id="carIn44622:1" type="CarDefault" depart="25444.00" departPos="random" departSpeed="0.00" arrivalPos="random" arrivalSpeed="0.00" route="r163" />
	<vehicle id="carIn45175:1" type="CarDefault" depart="25444.00" departPos="random" departSpeed="0.00" arrivalPos="random" arrivalSpeed="0.00" route="r164" />
	<vehicle id="h56995c1:1" type="CarDefault" depart="25445.00" departPos="random" departSpeed="0.00" arrivalPos="random" arrivalSpeed="0.00" route="r165" />
	<vehicle id="carIn27676:1" type="CarDefault" depart="25448.00" departPos="random" departSpeed="0.00" arrivalPos="random" arrivalSpeed="0.00" route="r166" />
	<vehicle id="carIn36246:1" type="CarDefault" depart="25448.00" departPos="random" departSpeed="0.00" arrivalPos="random" arrivalSpeed="0.00" route="r167" />
	<vehicle id="carIn12543:1" type="CarDefault" depart="25449.00" departPos="random" departSpeed="0.00" arrivalPos="random" arrivalSpeed="0.00" route="r168" />
	<vehicle id="carIn24216:1" type="CarDefault" depart="25450.00" departPos="random" departSpeed="0.00" arrivalPos="random" arrivalSpeed="0.00" route="r169" />
	<vehicle id="carIn26252:1" type="CarDefault" depart="25450.00" departPos="random" departSpeed="0.00" arrivalPos="random" arrivalSpeed="0.00" route="r170" />
	<vehicle id="carIn43201:1" type="CarDefault" depart="25450.00" departPos="random" departSpeed="0.00" arrivalPos="random" arrivalSpeed="0.00" route="r171" />
	<vehicle id="h67304c1:1" type="CarDefault" depart="25453.00" departPos="random" departSpeed="0.00" arrivalPos="random" arrivalSpeed="0.00" route="r172" />
	<vehicle id="h27041c1:1" type="CarDefault" depart="25459.00" departPos="random" departSpeed="0.00" arrivalPos="random" arrivalSpeed="0.00" route="r173" />
	<vehicle id="carIn47301:1" type="CarDefault" depart="25460.00" departPos="random" departSpeed="0.00" arrivalPos="random" arrivalSpeed="0.00" route="r174" />
	<vehicle id="carIn49184:1" type="CarDefault" depart="25461.00" departPos="random" departSpeed="0.00" arrivalPos="random" arrivalSpeed="0.00" route="r175" />
	<vehicle id="carIn23652:1" type="CarDefault" depart="25464.00" departPos="random" departSpeed="0.00" arrivalPos="random" arrivalSpeed="0.00" route="r52" />
	<vehicle id="h16966c1:1" type="CarDefault" depart="25464.00" departPos="random" departSpeed="0.00" arrivalPos="random" arrivalSpeed="0.00" route="r176" />
	<vehicle id="carIn30110:1" type="CarDefault" depart="25465.00" departPos="random" departSpeed="0.00" arrivalPos="random" arrivalSpeed="0.00" route="r177" />
	<vehicle id="h58160c1:1" type="CarDefault" depart="25466.00" departPos="random" departSpeed="0.00" arrivalPos="random" arrivalSpeed="0.00" route="r178" />
	<vehicle id="h24199c2:1" type="CarDefault" depart="25468.00" departPos="random" departSpeed="0.00" arrivalPos="random" arrivalSpeed="0.00" route="r179" />
	<vehicle id="h49663c1:1" type="CarDefault" depart="25471.00" departPos="random" departSpeed="0.00" arrivalPos="random" arrivalSpeed="0.00" route="r180" />
	<vehicle id="carIn18907:1" type="CarDefault" depart="25474.00" departPos="random" departSpeed="0.00" arrivalPos="random" arrivalSpeed="0.00" route="r181" />
	<vehicle id="carIn25297:1" type="CarDefault" depart="25475.00" departPos="random" departSpeed="0.00" arrivalPos="random" arrivalSpeed="0.00" route="r182" />
	<vehicle id="carIn44305:1" type="CarDefault" depart="25475.00" departPos="random" departSpeed="0.00" arrivalPos="random" arrivalSpeed="0.00" route="r183" />
	<vehicle id="h42861c1:1" type="CarDefault" depart="25475.00" departPos="random" departSpeed="0.00" arrivalPos="random" arrivalSpeed="0.00" route="r184" />
	<vehicle id="h23878c1:1" type="CarDefault" depart="25477.00" departPos="random" departSpeed="0.00" arrivalPos="random" arrivalSpeed="0.00" route="r185" />
	<vehicle id="carIn40305:1" type="CarDefault" depart="25478.00" departPos="random" departSpeed="0.00" arrivalPos="random" arrivalSpeed="0.00" route="r186" />
	<vehicle id="h2151c1:1" type="CarDefault" depart="25479.00" departPos="random" departSpeed="0.00" arrivalPos="random" arrivalSpeed="0.00" route="r187" />
	<vehicle id="carIn18827:1" type="CarDefault" depart="25482.00" departPos="random" departSpeed="0.00" arrivalPos="random" arrivalSpeed="0.00" route="r188" />