<additional>
    <edgeData id="edge_output" file="edgedata.out.xml" period="1800"/>
</additional>